version 2
run HTTP_Clients_8-13-20200818-15:23:13-7495
attr configname HTTP_Clients_8
attr datetime 20200818-15:23:13
attr experiment HTTP_Clients_8
attr inifile omnetpp.ini
attr iterationvars $time=2000
attr iterationvarsf time=2000-
attr measurement $time=2000
attr network FinalTask
attr processid 7495
attr repetition 13
attr replication #13
attr resultdir results
attr runnumber 13
attr seedset 13
itervar time 2000
param **.numClient 8
param **.FTPUploadStudent.numApps 1
param **.FTPUploadStudent.app[0].typename "\"TcpSessionApp\""
param **.FTPUploadStudent.app[0].active true
param **.FTPUploadStudent.app[0].connectAddress "\"FTPServer\""
param **.FTPUploadStudent.app[0].connectPort 21
param **.FTPUploadStudent.app[0].sendBytes "2000000000 B"
param **.Client[*].numApps 1
param **.Client[*].app[0].typename "\"TcpBasicClientApp\""
param **.Client[*].app[0].connectAddress "\"HTTPServer\""
param **.Client[*].app[0].connectPort 10021
param **.Client[*].app[0].replyLength "1B * int(truncnormal(658800,64400))"
param **.Client[*].app[0].requestLength 254B
param **.Client[*].app[0].idleInterval 3s
param **.Client[*].app[0].thinkTime 0s
param **.Client[*].app[0].startTime uniform(0s,1s)
param **.ppp[*].ppp.queue.typename "\"DropTailQueue\""
param **.LISPRouter.ppp[*].ppp.queue.packetCapacity 70
param **.LRouter.ppp[*].ppp.queue.packetCapacity 70
param **.DISPRouter.ppp[*].ppp.queue.packetCapacity 70
param **.DRouter.ppp[*].ppp.queue.packetCapacity 70
param **.opMode "\"g(mixed)\""
param **.channelNumber 0
param **.wlan[*].bitrate 54Mbps
param **.wlan[*].mac.dcf.rtsPolicy.rtsThreshold 3000B
param **.address "\"auto\""
param **.constraintAreaMinX 0m
param **.constraintAreaMinY 0m
param **.constraintAreaMinZ 0m
param **.constraintAreaMaxX 250m
param **.constraintAreaMaxY 30m
param **.constraintAreaMaxZ 0m
param **.AP.mobility.typename "\"StationaryMobility\""
param **.AP.mobility.initialX 125m
param **.AP.mobility.initialY 15m
param **.AP.mobility.initialZ 0m
param **.initFromDisplayString false
param **.tcp.typename "\"Tcp\""
param **.tcpAlgorithmClass "\"TcpNewReno\""
param **.tcp.mss 1460
param **.dataTransferMode "\"object\""
param **.tcp.advertisedWindow "1000 * this.mss"
param **.tcp.windowScalingSupport true
param **.FTPServer.numApps 1
param **.FTPServer.app[0].typename "\"TcpSinkApp\""
param **.FTPServer.app[0].localPort 21
param **.HTTPServer.numApps 1
param **.HTTPServer.app[0].typename "\"TcpGenericServerApp\""
param **.HTTPServer.app[0].localPort 10021
param **.Professor.numApps 1
param **.Student.numApps 1
param **.Professor.app[0].typename "\"VideoConfApp\""
param **.Professor.app[0].destPort 100
param **.Professor.app[0].localPort 100
param **.Professor.app[0].messageLength "1400B + 12B"
param **.Professor.app[0].sendInterval 0.04s
param **.Student.app[0].typename "\"VideoConfApp\""
param **.Student.app[0].destPort 100
param **.Student.app[0].localPort 100
param **.Student.app[0].messageLength "1400B + 12B"
param **.Student.app[0].sendInterval 0.04s
param **.Professor.app[0].destAddresses "\"Student\""
param **.Student.app[0].destAddresses "\"Professor\""

scalar FinalTask.AP.ethg$o[0].channel throughput:last 7716459.7860904
attr source sumPerDuration(packetBits(messageSent))
attr unit bps
scalar FinalTask.DRouter.pppg$o[0].channel throughput:last 7566608.0039415
attr source sumPerDuration(packetBits(messageSent))
attr unit bps
scalar FinalTask.DRouter.ethg$o[0].channel throughput:last 4503337.5430746
attr source sumPerDuration(packetBits(messageSent))
attr unit bps
scalar FinalTask.DISPRouter.pppg$o[0].channel throughput:last 4331651.8063722
attr source sumPerDuration(packetBits(messageSent))
attr unit bps
scalar FinalTask.DISPRouter.ethg$o[0].channel throughput:last 161430.69806198
attr source sumPerDuration(packetBits(messageSent))
attr unit bps
scalar FinalTask.DISPRouter.ethg$o[1].channel throughput:last 7555026.5103963
attr source sumPerDuration(packetBits(messageSent))
attr unit bps
scalar FinalTask.HTTPServer.ethg$o[0].channel throughput:last 3867668.1676498
attr source sumPerDuration(packetBits(messageSent))
attr unit bps
scalar FinalTask.LISPRouter.pppg$o[0].channel throughput:last 7457790.8713222
attr source sumPerDuration(packetBits(messageSent))
attr unit bps
scalar FinalTask.LISPRouter.ethg$o[0].channel throughput:last 635713.57065643
attr source sumPerDuration(packetBits(messageSent))
attr unit bps
scalar FinalTask.LRouter.pppg$o[0].channel throughput:last 512979.29969321
attr source sumPerDuration(packetBits(messageSent))
attr unit bps
scalar FinalTask.LRouter.ethg$o[0].channel throughput:last 7258856.1502963
attr source sumPerDuration(packetBits(messageSent))
attr unit bps
scalar FinalTask.LRouter.ethg$o[1].channel throughput:last 293128.24979186
attr source sumPerDuration(packetBits(messageSent))
attr unit bps
scalar FinalTask.FTPServer.ethg$o[0].channel throughput:last 342517.98502653
attr source sumPerDuration(packetBits(messageSent))
attr unit bps
scalar FinalTask.Professor.ethg$o[0].channel throughput:last 293204.896
attr source sumPerDuration(packetBits(messageSent))
attr unit bps
scalar FinalTask.AP.relayUnit "number of received BPDUs from STP module" 0
scalar FinalTask.AP.relayUnit "number of received frames from network (including BPDUs)" 3677415
scalar FinalTask.AP.relayUnit "number of dropped frames (including BPDUs)" 0
scalar FinalTask.AP.relayUnit "number of delivered BPDUs to the STP module" 0
scalar FinalTask.AP.relayUnit "number of dispatched BPDU frames to the network" 0
scalar FinalTask.AP.relayUnit "number of dispatched non-BDPU frames to the network" 3677415
scalar FinalTask.AP.wlan[0].mac.dcf.channelAccess.pendingQueue packetPopped:count 1787482
attr interpolationmode none
attr title "packet popped, count"
scalar FinalTask.AP.wlan[0].mac.dcf.channelAccess.pendingQueue packetPopped:sum(packetBytes) 1015204801
attr interpolationmode none
attr title "packet popped, sum(packetBytes)"
statistic FinalTask.AP.wlan[0].mac.dcf.channelAccess.pendingQueue queueingTime:histogram
field count 1787482
field mean 0.021773253852069
field stddev 0.031526817223454
field min 0
field max 1.685087280939
field sum 38919.299342004
field sqrsum 2624.0490145351
attr interpolationmode none
attr source queueingTime(packetPopped)
attr title "queueing times, histogram"
attr unit s
bin	-inf	0
bin	0	1234201
bin	0.02	152348
bin	0.04	99421
bin	0.06	103508
bin	0.08	177953
bin	0.1	20041
bin	0.12	0
bin	0.14	0
bin	0.16	0
bin	0.18	0
bin	0.2	0
bin	0.22	0
bin	0.24	0
bin	0.26	0
bin	0.28	0
bin	0.3	0
bin	0.32	0
bin	0.34	0
bin	0.36	0
bin	0.38	0
bin	0.4	0
bin	0.42	0
bin	0.44	0
bin	0.46	0
bin	0.48	0
bin	0.5	0
bin	0.52	0
bin	0.54	0
bin	0.56	0
bin	0.58	0
bin	0.6	1
bin	0.62	0
bin	0.64	0
bin	0.66	0
bin	0.68	0
bin	0.7	0
bin	0.72	1
bin	0.74	1
bin	0.76	0
bin	0.78	0
bin	0.8	0
bin	0.82	0
bin	0.84	0
bin	0.86	0
bin	0.88	0
bin	0.9	0
bin	0.92	0
bin	0.94	0
bin	0.96	0
bin	0.98	0
bin	1	1
bin	1.02	0
bin	1.04	1
bin	1.06	0
bin	1.08	0
bin	1.1	0
bin	1.12	0
bin	1.14	0
bin	1.16	0
bin	1.18	0
bin	1.2	0
bin	1.22	0
bin	1.24	0
bin	1.26	0
bin	1.28	0
bin	1.3	0
bin	1.32	0
bin	1.34	0
bin	1.36	0
bin	1.38	1
bin	1.4	0
bin	1.42	0
bin	1.44	0
bin	1.46	0
bin	1.48	0
bin	1.5	1
bin	1.52	1
bin	1.54	0
bin	1.56	0
bin	1.58	0
bin	1.6	0
bin	1.62	1
bin	1.64	0
bin	1.66	0
bin	1.68	1
bin	1.7	0
scalar FinalTask.AP.wlan[0].mac.dcf.channelAccess.pendingQueue queueLength:max 101
attr interpolationmode sample-hold
attr source "count(packetPushed) - count(packetPopped) - count(packetRemoved) - count(packetDropped)"
attr title "queue length, max"
scalar FinalTask.AP.wlan[0].mac.dcf.channelAccess.pendingQueue queueLength:timeavg 19.455923786721
attr interpolationmode sample-hold
attr source "count(packetPushed) - count(packetPopped) - count(packetRemoved) - count(packetDropped)"
attr title "queue length, timeavg"
scalar FinalTask.AP.wlan[0].mac.dcf.channelAccess.pendingQueue packetPushed:count 1901150
attr interpolationmode none
attr title "packet pushed, count"
scalar FinalTask.AP.wlan[0].mac.dcf.channelAccess.pendingQueue packetPushed:sum(packetBytes) 1145607173
attr interpolationmode none
attr title "packet pushed, sum(packetBytes)"
scalar FinalTask.AP.wlan[0].mac.dcf.channelAccess.pendingQueue packetDropQueueOverflow:count 113584
attr interpolationmode none
attr source packetDropReasonIsQueueOverflow(packetDropped)
attr title "packet drops: queue overflow, count"
scalar FinalTask.AP.wlan[0].mac.dcf.channelAccess.pendingQueue packetDropQueueOverflow:sum(packetBytes) 130334007
attr interpolationmode none
attr source packetDropReasonIsQueueOverflow(packetDropped)
attr title "packet drops: queue overflow, sum(packetBytes)"
scalar FinalTask.AP.wlan[0].mac.dcf.channelAccess.pendingQueue packetRemoved:count 0
attr interpolationmode none
attr title "packets removed, count"
scalar FinalTask.AP.wlan[0].mac.dcf.channelAccess.pendingQueue packetRemoved:sum(packetBytes) 0
attr interpolationmode none
attr title "packets removed, sum(packetBytes)"
statistic FinalTask.AP.wlan[0].mac.dcf.channelAccess.inProgressFrames queueingTime:histogram
field count 2337008
field mean 0.0008286762954259
field stddev 0.00052479177150478
field min 3.8e-05
field max 0.006713441184
field sum 1936.6231318207
field sqrsum 2.2484603751953
attr interpolationmode none
attr source queueingTime(packetDequeued)
attr title "queueing times, histogram"
bin	-inf	0
bin	0	7317
bin	8e-05	267424
bin	0.00016	27934
bin	0.00024	181862
bin	0.00032	131291
bin	0.0004	97931
bin	0.00048	115258
bin	0.00056	113696
bin	0.00064	105285
bin	0.00072	112623
bin	0.0008	115132
bin	0.00088	121791
bin	0.00096	126797
bin	0.00104	130124
bin	0.00112	132914
bin	0.0012	119874
bin	0.00128	72120
bin	0.00136	66325
bin	0.00144	58379
bin	0.00152	56509
bin	0.0016	48402
bin	0.00168	32188
bin	0.00176	16428
bin	0.00184	16050
bin	0.00192	14939
bin	0.002	13484
bin	0.00208	11014
bin	0.00216	3679
bin	0.00224	3690
bin	0.00232	3257
bin	0.0024	3170
bin	0.00248	2421
bin	0.00256	1709
bin	0.00264	977
bin	0.00272	877
bin	0.0028	743
bin	0.00288	691
bin	0.00296	576
bin	0.00304	389
bin	0.00312	282
bin	0.0032	233
bin	0.00328	234
bin	0.00336	196
bin	0.00344	166
bin	0.00352	129
bin	0.0036	83
bin	0.00368	72
bin	0.00376	51
bin	0.00384	48
bin	0.00392	40
bin	0.004	28
bin	0.00408	30
bin	0.00416	26
bin	0.00424	24
bin	0.00432	21
bin	0.0044	19
bin	0.00448	11
bin	0.00456	4
bin	0.00464	3
bin	0.00472	8
bin	0.0048	7
bin	0.00488	3
bin	0.00496	4
bin	0.00504	2
bin	0.00512	1
bin	0.0052	1
bin	0.00528	0
bin	0.00536	1
bin	0.00544	2
bin	0.00552	0
bin	0.0056	1
bin	0.00568	1
bin	0.00576	3
bin	0.00584	2
bin	0.00592	0
bin	0.006	0
bin	0.00608	0
bin	0.00616	0
bin	0.00624	0
bin	0.00632	0
bin	0.0064	0
bin	0.00648	0
bin	0.00656	1
bin	0.00664	1
bin	0.00672	0
scalar FinalTask.AP.wlan[0].mac.dcf.channelAccess.inProgressFrames queueLength:max 3
attr interpolationmode sample-hold
attr source "count(packetEnqueued) - count(packetDequeued)"
attr title "queue length, max"
scalar FinalTask.AP.wlan[0].mac.dcf.channelAccess.inProgressFrames queueLength:timeavg 0.96831325637919
attr interpolationmode sample-hold
attr source "count(packetEnqueued) - count(packetDequeued)"
attr title "queue length, timeavg"
scalar FinalTask.AP.wlan[0].mac.dcf.channelAccess.contention channelAccessGranted:count 1794408
attr title "channel access granted, count"
scalar FinalTask.AP.wlan[0].mac.dcf.channelAccess.contention stateChanged:count 28749916
attr interpolationmode none
attr title "contention state changed, count"
scalar FinalTask.AP.wlan[0].mac.dcf.channelAccess channelOwnershipChanged:count 3588816
attr interpolationmode sample-hold
attr title "channel ownership, count"
scalar FinalTask.AP.wlan[0].mac.dcf.originatorMacDataService packetAggregated:count 0
attr title "packets aggregated, count"
scalar FinalTask.AP.wlan[0].mac.dcf.originatorMacDataService packetFragmented:count 549528
attr title "packets fragmented, count"
scalar FinalTask.AP.wlan[0].mac.dcf.recipientMacDataService packetDeaggregated:count 0
attr title "packets deaggregated, count"
scalar FinalTask.AP.wlan[0].mac.dcf.recipientMacDataService packetDefragmented:count 1796355
attr title "packets defragmented, count"
scalar FinalTask.AP.wlan[0].mac.dcf.recipientMacDataService packetDropDuplicateDetected:count 0
attr interpolationmode none
attr source packetDropReasonIsDuplicateDetected(packetDropped)
attr title "packet drops: duplicate detected, count"
scalar FinalTask.AP.wlan[0].mac.dcf.recipientMacDataService packetDropDuplicateDetected:sum(packetBytes) 0
attr interpolationmode none
attr source packetDropReasonIsDuplicateDetected(packetDropped)
attr title "packet drops: duplicate detected, sum(packetBytes)"
scalar FinalTask.AP.wlan[0].mac.dcf.recoveryProcedure retryLimitReached:count 0
attr title "retry limit reached, count"
scalar FinalTask.AP.wlan[0].mac.dcf frameSequenceFinished:count 1794408
attr title "finished frame sequences, count"
statistic FinalTask.AP.wlan[0].mac.dcf frameSequenceDuration:histogram
field count 1794408
field mean 0.00018413230823304
field stddev 0.00013910548566404
field min 3.8e-05
field max 0.000387558872
field sum 330.40848695182
field sqrsum 0.095561255987472
attr source frameSequenceDuration(frameSequenceFinished)
attr title "frame sequence durations, histogram"
bin	-inf	0
bin	0	0
bin	1e-05	0
bin	2e-05	0
bin	3e-05	10
bin	4e-05	20161
bin	5e-05	0
bin	6e-05	0
bin	7e-05	0
bin	8e-05	1166375
bin	9e-05	3797
bin	0.0001	52
bin	0.00011	59
bin	0.00012	53
bin	0.00013	90
bin	0.00014	58
bin	0.00015	81
bin	0.00016	53
bin	0.00017	92
bin	0.00018	69
bin	0.00019	696
bin	0.0002	55
bin	0.00021	99
bin	0.00022	59
bin	0.00023	93
bin	0.00024	68
bin	0.00025	92
bin	0.00026	61
bin	0.00027	87
bin	0.00028	57
bin	0.00029	49369
bin	0.0003	3173
bin	0.00031	0
bin	0.00032	0
bin	0.00033	22
bin	0.00034	0
bin	0.00035	0
bin	0.00036	0
bin	0.00037	0
bin	0.00038	549527
bin	0.00039	0
bin	0.0004	0
bin	0.00041	0
bin	0.00042	0
bin	0.00043	0
bin	0.00044	0
bin	0.00045	0
bin	0.00046	0
bin	0.00047	0
bin	0.00048	0
statistic FinalTask.AP.wlan[0].mac.dcf frameSequenceNumPackets:histogram
field count 1794408
field mean 2.6012473194502
field stddev 0.93526460800541
field min 1
field max 4
field sum 4667699
field sqrsum 13711443
attr source frameSequenceNumPackets(frameSequenceFinished)
attr title "frame sequences: number of packets, histogram"
bin	-inf	0
bin	0	0
bin	1	20171
bin	2	1224710
bin	3	0
bin	4	549527
bin	5	0
scalar FinalTask.AP.wlan[0].mac.dcf packetReceivedFromPeer:count 5302767
attr interpolationmode none
attr title "packets received, count"
scalar FinalTask.AP.wlan[0].mac.dcf packetReceivedFromPeer:sum(packetBytes) 2009495106
attr interpolationmode none
attr title "packets received, sum(packetBytes)"
scalar FinalTask.AP.wlan[0].mac.dcf packetReceivedFromPeerUnicast:count 5302757
attr interpolationmode none
attr source ieee80211Unicast(packetReceivedFromPeer)
attr title "packets received: unicast, count"
scalar FinalTask.AP.wlan[0].mac.dcf packetReceivedFromPeerUnicast:sum(packetBytes) 2009494786
attr interpolationmode none
attr source ieee80211Unicast(packetReceivedFromPeer)
attr title "packets received: unicast, sum(packetBytes)"
scalar FinalTask.AP.wlan[0].mac.dcf packetReceivedFromPeerMulticast:count 10
attr interpolationmode none
attr source ieee80211Multicast(packetReceivedFromPeer)
attr title "packets received: multicast, count"
scalar FinalTask.AP.wlan[0].mac.dcf packetReceivedFromPeerMulticast:sum(packetBytes) 320
attr interpolationmode none
attr source ieee80211Multicast(packetReceivedFromPeer)
attr title "packets received: multicast, sum(packetBytes)"
scalar FinalTask.AP.wlan[0].mac.dcf packetReceivedFromPeerBroadcast:count 10
attr interpolationmode none
attr source ieee80211Broadcast(packetReceivedFromPeer)
attr title "packets received: broadcast, count"
scalar FinalTask.AP.wlan[0].mac.dcf packetReceivedFromPeerBroadcast:sum(packetBytes) 320
attr interpolationmode none
attr source ieee80211Broadcast(packetReceivedFromPeer)
attr title "packets received: broadcast, sum(packetBytes)"
scalar FinalTask.AP.wlan[0].mac.dcf packetReceivedFromPeerWithRetry:count 14868
attr interpolationmode none
attr source ieee80211Retry(packetReceivedFromPeer)
attr title "packets received: with retry, count"
scalar FinalTask.AP.wlan[0].mac.dcf packetReceivedFromPeerWithRetry:sum(packetBytes) 12917199
attr interpolationmode none
attr source ieee80211Retry(packetReceivedFromPeer)
attr title "packets received: with retry, sum(packetBytes)"
scalar FinalTask.AP.wlan[0].mac.dcf packetReceivedFromPeerWithoutRetry:count 5287899
attr interpolationmode none
attr source ieee80211NotRetry(packetReceivedFromPeer)
attr title "packets received: without retry, count"
scalar FinalTask.AP.wlan[0].mac.dcf packetReceivedFromPeerWithoutRetry:sum(packetBytes) 1996577907
attr interpolationmode none
attr source ieee80211NotRetry(packetReceivedFromPeer)
attr title "packets received: without retry, sum(packetBytes)"
scalar FinalTask.AP.wlan[0].mac.dcf packetSentToPeer:count 5329855
attr interpolationmode none
attr title "packets sent, count"
scalar FinalTask.AP.wlan[0].mac.dcf packetSentToPeer:sum(packetBytes) 1077495249
attr interpolationmode none
attr title "packets sent, sum(packetBytes)"
scalar FinalTask.AP.wlan[0].mac.dcf packetSentToPeerUnicast:count 5309684
attr interpolationmode none
attr source ieee80211Unicast(packetSentToPeer)
attr title "packets sent: unicast, count"
scalar FinalTask.AP.wlan[0].mac.dcf packetSentToPeerUnicast:sum(packetBytes) 1076521407
attr interpolationmode none
attr source ieee80211Unicast(packetSentToPeer)
attr title "packets sent: unicast, sum(packetBytes)"
scalar FinalTask.AP.wlan[0].mac.dcf packetSentToPeerMulticast:count 20171
attr interpolationmode none
attr source ieee80211Multicast(packetSentToPeer)
attr title "packets sent: multicast, count"
scalar FinalTask.AP.wlan[0].mac.dcf packetSentToPeerMulticast:sum(packetBytes) 973842
attr interpolationmode none
attr source ieee80211Multicast(packetSentToPeer)
attr title "packets sent: multicast, sum(packetBytes)"
scalar FinalTask.AP.wlan[0].mac.dcf packetSentToPeerBroadcast:count 20171
attr interpolationmode none
attr source ieee80211Broadcast(packetSentToPeer)
attr title "packets sent: broadcast , count"
scalar FinalTask.AP.wlan[0].mac.dcf packetSentToPeerBroadcast:sum(packetBytes) 973842
attr interpolationmode none
attr source ieee80211Broadcast(packetSentToPeer)
attr title "packets sent: broadcast , sum(packetBytes)"
scalar FinalTask.AP.wlan[0].mac.dcf packetSentToPeerWithRetry:count 6927
attr interpolationmode none
attr source ieee80211Retry(packetSentToPeer)
attr title "packets sent: with retry, count"
scalar FinalTask.AP.wlan[0].mac.dcf packetSentToPeerWithRetry:sum(packetBytes) 5102348
attr interpolationmode none
attr source ieee80211Retry(packetSentToPeer)
attr title "packets sent: with retry, sum(packetBytes)"
scalar FinalTask.AP.wlan[0].mac.dcf packetSentToPeerWithoutRetry:count 5322928
attr interpolationmode none
attr source ieee80211NotRetry(packetSentToPeer)
attr title "packets sent: without retry, count"
scalar FinalTask.AP.wlan[0].mac.dcf packetSentToPeerWithoutRetry:sum(packetBytes) 1072392901
attr interpolationmode none
attr source ieee80211NotRetry(packetSentToPeer)
attr title "packets sent: without retry, sum(packetBytes)"
scalar FinalTask.AP.wlan[0].mac.dcf packetDrop:count 113584
attr interpolationmode none
attr source packetDropped
attr title "packet drops, count"
scalar FinalTask.AP.wlan[0].mac.dcf packetDrop:sum(packetBytes) 130334007
attr interpolationmode none
attr source packetDropped
attr title "packet drops, sum(packetBytes)"
scalar FinalTask.AP.wlan[0].mac.dcf packetDropNotAddressedToUs:count 0
attr interpolationmode none
attr source packetDropReasonIsNotAddressedToUs(packetDropped)
attr title "packet drops: not addressed to us, count"
scalar FinalTask.AP.wlan[0].mac.dcf packetDropNotAddressedToUs:sum(packetBytes) 0
attr interpolationmode none
attr source packetDropReasonIsNotAddressedToUs(packetDropped)
attr title "packet drops: not addressed to us, sum(packetBytes)"
scalar FinalTask.AP.wlan[0].mac.dcf packetDropQueueOverflow:count 113584
attr interpolationmode none
attr source packetDropReasonIsQueueOverflow(packetDropped)
attr title "packet drops: queue overflow, count"
scalar FinalTask.AP.wlan[0].mac.dcf packetDropQueueOverflow:sum(packetBytes) 130334007
attr interpolationmode none
attr source packetDropReasonIsQueueOverflow(packetDropped)
attr title "packet drops: queue overflow, sum(packetBytes)"
scalar FinalTask.AP.wlan[0].mac.dcf packetDropRetryLimitReached:count 0
attr interpolationmode none
attr source packetDropReasonIsRetryLimitReached(packetDropped)
attr title "packet drops: retry limit reached, count"
scalar FinalTask.AP.wlan[0].mac.dcf packetDropRetryLimitReached:sum(packetBytes) 0
attr interpolationmode none
attr source packetDropReasonIsRetryLimitReached(packetDropped)
attr title "packet drops: retry limit reached, sum(packetBytes)"
scalar FinalTask.AP.wlan[0].mac.dcf linkBroken:count 0
attr interpolationmode none
attr title "link breaks, count"
scalar FinalTask.AP.wlan[0].mac packetReceivedFromLower:count 5306885
attr interpolationmode none
attr title "packets received from lower layer, count"
scalar FinalTask.AP.wlan[0].mac packetReceivedFromLower:sum(packetBytes) 2011917974
attr interpolationmode none
attr title "packets received from lower layer, sum(packetBytes)"
scalar FinalTask.AP.wlan[0].mac packetSentToLower:count 5329855
attr interpolationmode none
attr title "packets sent to lower layer, count"
scalar FinalTask.AP.wlan[0].mac packetSentToLower:sum(packetBytes) 1077495249
attr interpolationmode none
attr title "packets sent to lower layer, sum(packetBytes)"
scalar FinalTask.AP.wlan[0].mac packetReceivedFromUpper:count 1881100
attr interpolationmode none
attr title "packets received from upper layer, count"
scalar FinalTask.AP.wlan[0].mac packetReceivedFromUpper:sum(packetBytes) 1091974213
attr interpolationmode none
attr title "packets received from upper layer, sum(packetBytes)"
scalar FinalTask.AP.wlan[0].mac packetSentToUpper:count 1796315
attr interpolationmode none
attr title "packets sent to upper layer, count"
scalar FinalTask.AP.wlan[0].mac packetSentToUpper:sum(packetBytes) 1893453108
attr interpolationmode none
attr title "packets sent to upper layer, sum(packetBytes)"
scalar FinalTask.AP.wlan[0].mac packetDrop:count 117680
attr interpolationmode none
attr source packetDropped
attr title "packet drops, count"
scalar FinalTask.AP.wlan[0].mac packetDrop:sum(packetBytes) 132755203
attr interpolationmode none
attr source packetDropped
attr title "packet drops, sum(packetBytes)"
scalar FinalTask.AP.wlan[0].mac packetDropIncorrectlyReceived:count 4096
attr interpolationmode none
attr source packetDropReasonIsIncorrectlyReceived(packetDropped)
attr title "packet drops: incorrectly received, count"
scalar FinalTask.AP.wlan[0].mac packetDropIncorrectlyReceived:sum(packetBytes) 2421196
attr interpolationmode none
attr source packetDropReasonIsIncorrectlyReceived(packetDropped)
attr title "packet drops: incorrectly received, sum(packetBytes)"
scalar FinalTask.AP.wlan[0].mac packetDropNotAddressedToUs:count 0
attr interpolationmode none
attr source packetDropReasonIsNotAddressedToUs(packetDropped)
attr title "packet drops: not addressed to us, count"
scalar FinalTask.AP.wlan[0].mac packetDropNotAddressedToUs:sum(packetBytes) 0
attr interpolationmode none
attr source packetDropReasonIsNotAddressedToUs(packetDropped)
attr title "packet drops: not addressed to us, sum(packetBytes)"
scalar FinalTask.AP.wlan[0].mac packetDropQueueOverflow:count 113584
attr interpolationmode none
attr source packetDropReasonIsQueueOverflow(packetDropped)
attr title "packet drops: queue overflow, count"
scalar FinalTask.AP.wlan[0].mac packetDropQueueOverflow:sum(packetBytes) 130334007
attr interpolationmode none
attr source packetDropReasonIsQueueOverflow(packetDropped)
attr title "packet drops: queue overflow, sum(packetBytes)"
scalar FinalTask.AP.wlan[0].mac packetDropRetryLimitReached:count 0
attr interpolationmode none
attr source packetDropReasonIsRetryLimitReached(packetDropped)
attr title "packet drops: retry limit reached, count"
scalar FinalTask.AP.wlan[0].mac packetDropRetryLimitReached:sum(packetBytes) 0
attr interpolationmode none
attr source packetDropReasonIsRetryLimitReached(packetDropped)
attr title "packet drops: retry limit reached, sum(packetBytes)"
scalar FinalTask.AP.wlan[0].mac packetDropDuplicateDetected:count 0
attr interpolationmode none
attr source packetDropReasonIsDuplicateDetected(packetDropped)
attr title "packet drops: duplicate detected, count"
scalar FinalTask.AP.wlan[0].mac packetDropDuplicateDetected:sum(packetBytes) 0
attr interpolationmode none
attr source packetDropReasonIsDuplicateDetected(packetDropped)
attr title "packet drops: duplicate detected, sum(packetBytes)"
scalar FinalTask.AP.wlan[0].mac packetDropOther:count 0
attr interpolationmode none
attr source packetDropReasonIsOther(packetDropped)
attr title "packet drops: other, count"
scalar FinalTask.AP.wlan[0].mac packetDropOther:sum(packetBytes) 0
attr interpolationmode none
attr source packetDropReasonIsOther(packetDropped)
attr title "packet drops: other, sum(packetBytes)"
scalar FinalTask.AP.wlan[0].mac linkBroken:count 0
attr interpolationmode none
attr title "link breaks, count"
statistic FinalTask.AP.wlan[0].radio radioChannel:histogram
field count 1
field mean 0
field stddev -nan
field min 0
field max 0
field sum 0
field sqrsum 0
attr interpolationmode sample-hold
attr source radioChannelChanged
attr title "Radio channel, histogram"
bin	-inf	0
bin	-0.5	0
bin	-0.48	0
bin	-0.46	0
bin	-0.44	0
bin	-0.42	0
bin	-0.4	0
bin	-0.38	0
bin	-0.36	0
bin	-0.34	0
bin	-0.32	0
bin	-0.3	0
bin	-0.28	0
bin	-0.26	0
bin	-0.24	0
bin	-0.22	0
bin	-0.2	0
bin	-0.18	0
bin	-0.16	0
bin	-0.14	0
bin	-0.12	0
bin	-0.1	0
bin	-0.08	0
bin	-0.06	0
bin	-0.04	0
bin	-0.02	0
bin	0	1
bin	0.02	0
bin	0.04	0
bin	0.06	0
bin	0.08	0
bin	0.1	0
bin	0.12	0
bin	0.14	0
bin	0.16	0
bin	0.18	0
bin	0.2	0
bin	0.22	0
bin	0.24	0
bin	0.26	0
bin	0.28	0
bin	0.3	0
bin	0.32	0
bin	0.34	0
bin	0.36	0
bin	0.38	0
bin	0.4	0
bin	0.42	0
bin	0.44	0
bin	0.46	0
bin	0.48	0
bin	0.5	0
scalar FinalTask.AP.wlan[0].radio radioMode:count 10659713
attr interpolationmode sample-hold
attr source radioModeChanged
attr title "Radio mode, count"
scalar FinalTask.AP.wlan[0].radio receptionState:count 21279820
attr interpolationmode sample-hold
attr source receptionStateChanged
attr title "Radio reception state, count"
scalar FinalTask.AP.wlan[0].radio transmissionState:count 21319420
attr interpolationmode sample-hold
attr source transmissionStateChanged
attr title "Radio transmission state, count"
statistic FinalTask.AP.wlan[0].radio minSnir:histogram
field count 5306885
field mean 85264.174544506
field stddev 192061.78698806
field min 0.023556283568761
field max 1016742.0605931
field sum 452487168927.62
field sqrsum 2.343398491956e+17
attr source minimumSnir(packetSentToUpper)
attr title "Min SNIR, histogram"
bin	-inf	0
bin	0	206348
bin	20000	306278
bin	40000	3746384
bin	60000	424146
bin	80000	198157
bin	100000	211552
bin	120000	0
bin	140000	0
bin	160000	0
bin	180000	0
bin	200000	0
bin	220000	0
bin	240000	0
bin	260000	0
bin	280000	0
bin	300000	0
bin	320000	0
bin	340000	0
bin	360000	0
bin	380000	0
bin	400000	0
bin	420000	0
bin	440000	0
bin	460000	0
bin	480000	0
bin	500000	0
bin	520000	0
bin	540000	0
bin	560000	0
bin	580000	0
bin	600000	0
bin	620000	0
bin	640000	0
bin	660000	0
bin	680000	0
bin	700000	0
bin	720000	0
bin	740000	0
bin	760000	0
bin	780000	0
bin	800000	0
bin	820000	0
bin	840000	0
bin	860000	0
bin	880000	0
bin	900000	0
bin	920000	0
bin	940000	0
bin	960000	0
bin	980000	0
bin	1000000	214020
bin	1020000	0
bin	1040000	0
bin	1060000	0
bin	1080000	0
bin	1100000	0
bin	1120000	0
bin	1140000	0
bin	1160000	0
bin	1180000	0
bin	1200000	0
bin	1220000	0
bin	1240000	0
bin	1260000	0
bin	1280000	0
statistic FinalTask.AP.wlan[0].radio packetErrorRate:histogram
field count 5306885
field mean 0.00077182754101512
field stddev 0.027771063512021
field min 0
field max 1
field sum 4096
field sqrsum 4096
attr source packetErrorRate(packetSentToUpper)
attr title "Packet error rate, histogram"
bin	-inf	0
bin	-0.5	0
bin	-0.48	0
bin	-0.46	0
bin	-0.44	0
bin	-0.42	0
bin	-0.4	0
bin	-0.38	0
bin	-0.36	0
bin	-0.34	0
bin	-0.32	0
bin	-0.3	0
bin	-0.28	0
bin	-0.26	0
bin	-0.24	0
bin	-0.22	0
bin	-0.2	0
bin	-0.18	0
bin	-0.16	0
bin	-0.14	0
bin	-0.12	0
bin	-0.1	0
bin	-0.08	0
bin	-0.06	0
bin	-0.04	0
bin	-0.02	0
bin	0	5302789
bin	0.02	0
bin	0.04	0
bin	0.06	0
bin	0.08	0
bin	0.1	0
bin	0.12	0
bin	0.14	0
bin	0.16	0
bin	0.18	0
bin	0.2	0
bin	0.22	0
bin	0.24	0
bin	0.26	0
bin	0.28	0
bin	0.3	0
bin	0.32	0
bin	0.34	0
bin	0.36	0
bin	0.38	0
bin	0.4	0
bin	0.42	0
bin	0.44	0
bin	0.46	0
bin	0.48	0
bin	0.5	0
bin	0.52	0
bin	0.54	0
bin	0.56	0
bin	0.58	0
bin	0.6	0
bin	0.62	0
bin	0.64	0
bin	0.66	0
bin	0.68	0
bin	0.7	0
bin	0.72	0
bin	0.74	0
bin	0.76	0
bin	0.78	0
bin	0.8	0
bin	0.82	0
bin	0.84	0
bin	0.86	0
bin	0.88	0
bin	0.9	0
bin	0.92	0
bin	0.94	0
bin	0.96	0
bin	0.98	0
bin	1	4096
bin	1.02	0
statistic FinalTask.AP.wlan[0].radio bitErrorRate:histogram
field count 0
field mean -nan
field stddev -nan
field min -nan
field max -nan
field sum 0
field sqrsum 0
attr source bitErrorRate(packetSentToUpper)
attr title "Bit error rate, histogram"
bin	-inf	0
bin	0	0
bin	1	0
statistic FinalTask.AP.wlan[0].radio symbolErrorRate:histogram
field count 0
field mean -nan
field stddev -nan
field min -nan
field max -nan
field sum 0
field sqrsum 0
attr source symbolErrorRate(packetSentToUpper)
attr title "Symbol error rate, histogram"
bin	-inf	0
bin	0	0
bin	1	0
scalar FinalTask.AP.eth[0].mac.queue packetPopped:count 1796315
attr interpolationmode none
attr title "packet popped, count"
scalar FinalTask.AP.eth[0].mac.queue packetPopped:sum(packetBytes) 1914743240
attr interpolationmode none
attr title "packet popped, sum(packetBytes)"
statistic FinalTask.AP.eth[0].mac.queue queueingTime:histogram
field count 1796315
field mean 0
field stddev 0
field min 0
field max 0
field sum 0
field sqrsum 0
attr interpolationmode none
attr source queueingTime(packetPopped)
attr title "queueing times, histogram"
attr unit s
bin	-inf	0
bin	-0.5	0
bin	-0.48	0
bin	-0.46	0
bin	-0.44	0
bin	-0.42	0
bin	-0.4	0
bin	-0.38	0
bin	-0.36	0
bin	-0.34	0
bin	-0.32	0
bin	-0.3	0
bin	-0.28	0
bin	-0.26	0
bin	-0.24	0
bin	-0.22	0
bin	-0.2	0
bin	-0.18	0
bin	-0.16	0
bin	-0.14	0
bin	-0.12	0
bin	-0.1	0
bin	-0.08	0
bin	-0.06	0
bin	-0.04	0
bin	-0.02	0
bin	0	1796315
bin	0.02	0
bin	0.04	0
bin	0.06	0
bin	0.08	0
bin	0.1	0
bin	0.12	0
bin	0.14	0
bin	0.16	0
bin	0.18	0
bin	0.2	0
bin	0.22	0
bin	0.24	0
bin	0.26	0
bin	0.28	0
bin	0.3	0
bin	0.32	0
bin	0.34	0
bin	0.36	0
bin	0.38	0
bin	0.4	0
bin	0.42	0
bin	0.44	0
bin	0.46	0
bin	0.48	0
bin	0.5	0
scalar FinalTask.AP.eth[0].mac.queue queueLength:max 1
attr interpolationmode sample-hold
attr source "count(packetPushed) - count(packetPopped) - count(packetRemoved) - count(packetDropped)"
attr title "queue length, max"
scalar FinalTask.AP.eth[0].mac.queue queueLength:timeavg 0
attr interpolationmode sample-hold
attr source "count(packetPushed) - count(packetPopped) - count(packetRemoved) - count(packetDropped)"
attr title "queue length, timeavg"
scalar FinalTask.AP.eth[0].mac.queue packetPushed:count 1796315
attr interpolationmode none
attr title "packet pushed, count"
scalar FinalTask.AP.eth[0].mac.queue packetPushed:sum(packetBytes) 1914743240
attr interpolationmode none
attr title "packet pushed, sum(packetBytes)"
scalar FinalTask.AP.eth[0].mac.queue packetDropQueueOverflow:count 0
attr interpolationmode none
attr source packetDropReasonIsQueueOverflow(packetDropped)
attr title "packet drops: queue overflow, count"
scalar FinalTask.AP.eth[0].mac.queue packetDropQueueOverflow:sum(packetBytes) 0
attr interpolationmode none
attr source packetDropReasonIsQueueOverflow(packetDropped)
attr title "packet drops: queue overflow, sum(packetBytes)"
scalar FinalTask.AP.eth[0].mac.queue packetRemoved:count 0
attr interpolationmode none
attr title "packets removed, count"
scalar FinalTask.AP.eth[0].mac.queue packetRemoved:sum(packetBytes) 0
attr interpolationmode none
attr title "packets removed, sum(packetBytes)"
scalar FinalTask.AP.eth[0].mac "simulated time" 2000
scalar FinalTask.AP.eth[0].mac full-duplex 1
scalar FinalTask.AP.eth[0].mac "frames/sec sent" 898.1575
scalar FinalTask.AP.eth[0].mac "frames/sec rcvd" 940.55
scalar FinalTask.AP.eth[0].mac "bits/sec sent" 7658972.96
scalar FinalTask.AP.eth[0].mac "bits/sec rcvd" 4443140.852
scalar FinalTask.AP.eth[0].mac "rx channel idle (%)" 100
scalar FinalTask.AP.eth[0].mac "rx channel utilization (%)" 0
scalar FinalTask.AP.eth[0].mac rxPausePkUnits:count 0
attr interpolationmode none
attr title "pause units received, count"
scalar FinalTask.AP.eth[0].mac rxPausePkUnits:sum 0
attr interpolationmode none
attr title "pause units received, sum"
scalar FinalTask.AP.eth[0].mac txPausePkUnits:count 0
attr interpolationmode none
attr title "pause units sent, count"
scalar FinalTask.AP.eth[0].mac txPausePkUnits:sum 0
attr interpolationmode none
attr title "pause units sent, sum"
scalar FinalTask.AP.eth[0].mac rxPkOk:count 1881100
attr interpolationmode none
attr source rxPkOk
attr title "packets received OK, count"
scalar FinalTask.AP.eth[0].mac rxPkOk:sum(packetBytes) 1110785213
attr interpolationmode none
attr source rxPkOk
attr title "packets received OK, sum(packetBytes)"
scalar FinalTask.AP.eth[0].mac txPk:count 1796315
attr interpolationmode none
attr source packetSentToLower
attr title "packets transmitted, count"
scalar FinalTask.AP.eth[0].mac txPk:sum(packetBytes) 1914743240
attr interpolationmode none
attr source packetSentToLower
attr title "packets transmitted, sum(packetBytes)"
scalar FinalTask.AP.eth[0].mac packetReceivedFromUpper:count 1796315
attr interpolationmode none
attr source packetReceivedFromUpper
attr title "packet bytes from higher layer, count"
scalar FinalTask.AP.eth[0].mac packetReceivedFromUpper:sum(packetBytes) 1911416258
attr interpolationmode none
attr source packetReceivedFromUpper
attr title "packet bytes from higher layer, sum(packetBytes)"
scalar FinalTask.AP.eth[0].mac passedUpPk:count 1881100
attr interpolationmode none
attr source packetSentToUpper
attr title "packets passed to higher layer, count"
scalar FinalTask.AP.eth[0].mac passedUpPk:sum(packetBytes) 1110785213
attr interpolationmode none
attr source packetSentToUpper
attr title "packets passed to higher layer, sum(packetBytes)"
scalar FinalTask.AP.eth[0].mac packetDropIncorrectlyReceived:count 0
attr interpolationmode none
attr source packetDropReasonIsIncorrectlyReceived(packetDropped)
attr title "packet drop: incorrectly received, count"
scalar FinalTask.AP.eth[0].mac packetDropIncorrectlyReceived:sum(packetBytes) 0
attr interpolationmode none
attr source packetDropReasonIsIncorrectlyReceived(packetDropped)
attr title "packet drop: incorrectly received, sum(packetBytes)"
scalar FinalTask.AP.eth[0].mac packetDropInterfaceDown:count 0
attr interpolationmode none
attr source packetDropReasonIsInterfaceDown(packetDropped)
attr title "packet drop: interface down, count"
scalar FinalTask.AP.eth[0].mac packetDropInterfaceDown:sum(packetBytes) 0
attr interpolationmode none
attr source packetDropReasonIsInterfaceDown(packetDropped)
attr title "packet drop: interface down, sum(packetBytes)"
scalar FinalTask.AP.eth[0].mac packetDropNotAddressedToUs:count 0
attr interpolationmode none
attr source packetDropReasonIsNotAddressedToUs(packetDropped)
attr title "packet drop: not addressed to us, count"
scalar FinalTask.AP.eth[0].mac packetDropNotAddressedToUs:sum(packetBytes) 0
attr interpolationmode none
attr source packetDropReasonIsNotAddressedToUs(packetDropped)
attr title "packet drop: not addressed to us, sum(packetBytes)"
scalar FinalTask.DRouter.lo[0].lo rcvdPkFromHl:count 0
attr interpolationmode none
attr source packetReceivedFromUpper
attr title "packets received from higher layer, count"
scalar FinalTask.DRouter.lo[0].lo rcvdPkFromHl:sum(packetBytes) 0
attr interpolationmode none
attr source packetReceivedFromUpper
attr title "packets received from higher layer, sum(packetBytes)"
scalar FinalTask.DRouter.lo[0].lo passedUpPk:count 0
attr interpolationmode none
attr source packetSentToUpper
attr title "packets passed to higher layer, count"
scalar FinalTask.DRouter.lo[0].lo passedUpPk:sum(packetBytes) 0
attr interpolationmode none
attr source packetSentToUpper
attr title "packets passed to higher layer, sum(packetBytes)"
scalar FinalTask.DRouter.ppp[0].ppp.queue packetPopped:count 1796145
attr interpolationmode none
attr title "packet popped, count"
scalar FinalTask.DRouter.ppp[0].ppp.queue packetPopped:sum(packetBytes) 1879077828
attr interpolationmode none
attr title "packet popped, sum(packetBytes)"
statistic FinalTask.DRouter.ppp[0].ppp.queue queueingTime:histogram
field count 1796145
field mean 7.7192923837867e-06
field stddev 3.9089864744206e-05
field min 0
field max 0.000285627456
field sum 13.864968418676
field sqrsum 0.0028515672558332
attr interpolationmode none
attr source queueingTime(packetPopped)
attr title "queueing times, histogram"
attr unit s
bin	-inf	0
bin	-0.5	0
bin	-0.48	0
bin	-0.46	0
bin	-0.44	0
bin	-0.42	0
bin	-0.4	0
bin	-0.38	0
bin	-0.36	0
bin	-0.34	0
bin	-0.32	0
bin	-0.3	0
bin	-0.28	0
bin	-0.26	0
bin	-0.24	0
bin	-0.22	0
bin	-0.2	0
bin	-0.18	0
bin	-0.16	0
bin	-0.14	0
bin	-0.12	0
bin	-0.1	0
bin	-0.08	0
bin	-0.06	0
bin	-0.04	0
bin	-0.02	0
bin	0	1796145
bin	0.02	0
bin	0.04	0
bin	0.06	0
bin	0.08	0
bin	0.1	0
bin	0.12	0
bin	0.14	0
bin	0.16	0
bin	0.18	0
bin	0.2	0
bin	0.22	0
bin	0.24	0
bin	0.26	0
bin	0.28	0
bin	0.3	0
bin	0.32	0
bin	0.34	0
bin	0.36	0
bin	0.38	0
bin	0.4	0
bin	0.42	0
bin	0.44	0
bin	0.46	0
bin	0.48	0
bin	0.5	0
scalar FinalTask.DRouter.ppp[0].ppp.queue queueLength:max 3
attr interpolationmode sample-hold
attr source "count(packetPushed) - count(packetPopped) - count(packetRemoved) - count(packetDropped)"
attr title "queue length, max"
scalar FinalTask.DRouter.ppp[0].ppp.queue queueLength:timeavg 0.0069346190958989
attr interpolationmode sample-hold
attr source "count(packetPushed) - count(packetPopped) - count(packetRemoved) - count(packetDropped)"
attr title "queue length, timeavg"
scalar FinalTask.DRouter.ppp[0].ppp.queue packetPushed:count 1796145
attr interpolationmode none
attr title "packet pushed, count"
scalar FinalTask.DRouter.ppp[0].ppp.queue packetPushed:sum(packetBytes) 1879077828
attr interpolationmode none
attr title "packet pushed, sum(packetBytes)"
scalar FinalTask.DRouter.ppp[0].ppp.queue packetDropQueueOverflow:count 0
attr interpolationmode none
attr source packetDropReasonIsQueueOverflow(packetDropped)
attr title "packet drops: queue overflow, count"
scalar FinalTask.DRouter.ppp[0].ppp.queue packetDropQueueOverflow:sum(packetBytes) 0
attr interpolationmode none
attr source packetDropReasonIsQueueOverflow(packetDropped)
attr title "packet drops: queue overflow, sum(packetBytes)"
scalar FinalTask.DRouter.ppp[0].ppp.queue packetRemoved:count 0
attr interpolationmode none
attr title "packets removed, count"
scalar FinalTask.DRouter.ppp[0].ppp.queue packetRemoved:sum(packetBytes) 0
attr interpolationmode none
attr title "packets removed, sum(packetBytes)"
scalar FinalTask.DRouter.ppp[0].ppp transmissionState:timeavg 0.18916508430625
attr interpolationmode sample-hold
attr source transmissionStateChanged
attr title "tx state, timeavg"
scalar FinalTask.DRouter.ppp[0].ppp rxPkOk:count 1880929
attr interpolationmode none
attr source rxPkOk
attr title "packets received OK, count"
scalar FinalTask.DRouter.ppp[0].ppp rxPkOk:sum(packetBytes) 1082912591
attr interpolationmode none
attr source rxPkOk
attr title "packets received OK, sum(packetBytes)"
scalar FinalTask.DRouter.ppp[0].ppp txPk:count 1796145
attr interpolationmode none
attr source packetSentToLower
attr title "packets transmitted, count"
scalar FinalTask.DRouter.ppp[0].ppp txPk:sum(packetBytes) 1891650843
attr interpolationmode none
attr source packetSentToLower
attr title "packets transmitted, sum(packetBytes)"
scalar FinalTask.DRouter.ppp[0].ppp rcvdPkFromHl:count 1796145
attr interpolationmode none
attr source packetReceivedFromUpper
attr title "packets received from higher layer, count"
scalar FinalTask.DRouter.ppp[0].ppp rcvdPkFromHl:sum(packetBytes) 1879077828
attr interpolationmode none
attr source packetReceivedFromUpper
attr title "packets received from higher layer, sum(packetBytes)"
scalar FinalTask.DRouter.ppp[0].ppp passedUpPk:count 1880929
attr interpolationmode none
attr source packetSentToUpper
attr title "packets passed to higher layer, count"
scalar FinalTask.DRouter.ppp[0].ppp passedUpPk:sum(packetBytes) 1069746088
attr interpolationmode none
attr source packetSentToUpper
attr title "packets passed to higher layer, sum(packetBytes)"
scalar FinalTask.DRouter.ppp[0].ppp packetDropIncorrectlyReceived:count 0
attr interpolationmode none
attr source packetDropReasonIsIncorrectlyReceived(packetDropped)
attr title "packet drop: incorrectly received, count"
scalar FinalTask.DRouter.ppp[0].ppp packetDropIncorrectlyReceived:sum(packetBytes) 0
attr interpolationmode none
attr source packetDropReasonIsIncorrectlyReceived(packetDropped)
attr title "packet drop: incorrectly received, sum(packetBytes)"
scalar FinalTask.DRouter.ppp[0].ppp packetDropInterfaceDown:count 0
attr interpolationmode none
attr source packetDropReasonIsInterfaceDown(packetDropped)
attr title "packet drop: interface down, count"
scalar FinalTask.DRouter.ppp[0].ppp packetDropInterfaceDown:sum(packetBytes) 0
attr interpolationmode none
attr source packetDropReasonIsInterfaceDown(packetDropped)
attr title "packet drop: interface down, sum(packetBytes)"
scalar FinalTask.DRouter.eth[0].mac.queue packetPopped:count 1881100
attr interpolationmode none
attr title "packet popped, count"
scalar FinalTask.DRouter.eth[0].mac.queue packetPopped:sum(packetBytes) 1110785213
attr interpolationmode none
attr title "packet popped, sum(packetBytes)"
statistic FinalTask.DRouter.eth[0].mac.queue queueingTime:histogram
field count 1881100
field mean 4.8104524432374e-06
field stddev 2.5867792250296e-05
field min 0
field max 0.00283776
field sum 9.0489420909739
field sqrsum 0.0013022531240914
attr interpolationmode none
attr source queueingTime(packetPopped)
attr title "queueing times, histogram"
attr unit s
bin	-inf	0
bin	0	1811658
bin	5e-05	14376
bin	0.0001	48790
bin	0.00015	1941
bin	0.0002	2506
bin	0.00025	1201
bin	0.0003	210
bin	0.00035	166
bin	0.0004	39
bin	0.00045	42
bin	0.0005	89
bin	0.00055	9
bin	0.0006	10
bin	0.00065	7
bin	0.0007	4
bin	0.00075	0
bin	0.0008	2
bin	0.00085	3
bin	0.0009	2
bin	0.00095	2
bin	0.001	1
bin	0.00105	1
bin	0.0011	2
bin	0.00115	2
bin	0.0012	2
bin	0.00125	1
bin	0.0013	1
bin	0.00135	2
bin	0.0014	4
bin	0.00145	2
bin	0.0015	2
bin	0.00155	1
bin	0.0016	1
bin	0.00165	2
bin	0.0017	2
bin	0.00175	2
bin	0.0018	1
bin	0.00185	2
bin	0.0019	1
bin	0.00195	1
bin	0.002	2
bin	0.00205	0
bin	0.0021	1
bin	0.00215	1
bin	0.0022	1
bin	0.00225	0
bin	0.0023	0
bin	0.00235	1
bin	0.0024	0
bin	0.00245	1
bin	0.0025	0
bin	0.00255	0
bin	0.0026	1
bin	0.00265	0
bin	0.0027	1
bin	0.00275	0
bin	0.0028	1
bin	0.00285	0
bin	0.0029	0
bin	0.00295	0
bin	0.003	0
bin	0.00305	0
bin	0.0031	0
bin	0.00315	0
bin	0.0032	0
bin	0.00325	0
bin	0.0033	0
bin	0.00335	0
bin	0.0034	0
bin	0.00345	0
bin	0.0035	0
bin	0.00355	0
scalar FinalTask.DRouter.eth[0].mac.queue queueLength:max 50
attr interpolationmode sample-hold
attr source "count(packetPushed) - count(packetPopped) - count(packetRemoved) - count(packetDropped)"
attr title "queue length, max"
scalar FinalTask.DRouter.eth[0].mac.queue queueLength:timeavg 0.0045249958307702
attr interpolationmode sample-hold
attr source "count(packetPushed) - count(packetPopped) - count(packetRemoved) - count(packetDropped)"
attr title "queue length, timeavg"
scalar FinalTask.DRouter.eth[0].mac.queue packetPushed:count 1881100
attr interpolationmode none
attr title "packet pushed, count"
scalar FinalTask.DRouter.eth[0].mac.queue packetPushed:sum(packetBytes) 1110785213
attr interpolationmode none
attr title "packet pushed, sum(packetBytes)"
scalar FinalTask.DRouter.eth[0].mac.queue packetDropQueueOverflow:count 0
attr interpolationmode none
attr source packetDropReasonIsQueueOverflow(packetDropped)
attr title "packet drops: queue overflow, count"
scalar FinalTask.DRouter.eth[0].mac.queue packetDropQueueOverflow:sum(packetBytes) 0
attr interpolationmode none
attr source packetDropReasonIsQueueOverflow(packetDropped)
attr title "packet drops: queue overflow, sum(packetBytes)"
scalar FinalTask.DRouter.eth[0].mac.queue packetRemoved:count 0
attr interpolationmode none
attr title "packets removed, count"
scalar FinalTask.DRouter.eth[0].mac.queue packetRemoved:sum(packetBytes) 0
attr interpolationmode none
attr title "packets removed, sum(packetBytes)"
scalar FinalTask.DRouter.eth[0].mac "simulated time" 2000
scalar FinalTask.DRouter.eth[0].mac full-duplex 1
scalar FinalTask.DRouter.eth[0].mac "frames/sec sent" 940.55
scalar FinalTask.DRouter.eth[0].mac "frames/sec rcvd" 898.1575
scalar FinalTask.DRouter.eth[0].mac "bits/sec sent" 4443140.852
scalar FinalTask.DRouter.eth[0].mac "bits/sec rcvd" 7658972.96
scalar FinalTask.DRouter.eth[0].mac "rx channel idle (%)" 100
scalar FinalTask.DRouter.eth[0].mac "rx channel utilization (%)" 0
scalar FinalTask.DRouter.eth[0].mac rxPausePkUnits:count 0
attr interpolationmode none
attr title "pause units received, count"
scalar FinalTask.DRouter.eth[0].mac rxPausePkUnits:sum 0
attr interpolationmode none
attr title "pause units received, sum"
scalar FinalTask.DRouter.eth[0].mac txPausePkUnits:count 0
attr interpolationmode none
attr title "pause units sent, count"
scalar FinalTask.DRouter.eth[0].mac txPausePkUnits:sum 0
attr interpolationmode none
attr title "pause units sent, sum"
scalar FinalTask.DRouter.eth[0].mac rxPkOk:count 1796315
attr interpolationmode none
attr source rxPkOk
attr title "packets received OK, count"
scalar FinalTask.DRouter.eth[0].mac rxPkOk:sum(packetBytes) 1914743240
attr interpolationmode none
attr source rxPkOk
attr title "packets received OK, sum(packetBytes)"
scalar FinalTask.DRouter.eth[0].mac txPk:count 1881100
attr interpolationmode none
attr source packetSentToLower
attr title "packets transmitted, count"
scalar FinalTask.DRouter.eth[0].mac txPk:sum(packetBytes) 1110785213
attr interpolationmode none
attr source packetSentToLower
attr title "packets transmitted, sum(packetBytes)"
scalar FinalTask.DRouter.eth[0].mac packetReceivedFromUpper:count 1881100
attr interpolationmode none
attr source packetReceivedFromUpper
attr title "packet bytes from higher layer, count"
scalar FinalTask.DRouter.eth[0].mac packetReceivedFromUpper:sum(packetBytes) 1103610676
attr interpolationmode none
attr source packetReceivedFromUpper
attr title "packet bytes from higher layer, sum(packetBytes)"
scalar FinalTask.DRouter.eth[0].mac passedUpPk:count 1796315
attr interpolationmode none
attr source packetSentToUpper
attr title "packets passed to higher layer, count"
scalar FinalTask.DRouter.eth[0].mac passedUpPk:sum(packetBytes) 1914743240
attr interpolationmode none
attr source packetSentToUpper
attr title "packets passed to higher layer, sum(packetBytes)"
scalar FinalTask.DRouter.eth[0].mac packetDropIncorrectlyReceived:count 0
attr interpolationmode none
attr source packetDropReasonIsIncorrectlyReceived(packetDropped)
attr title "packet drop: incorrectly received, count"
scalar FinalTask.DRouter.eth[0].mac packetDropIncorrectlyReceived:sum(packetBytes) 0
attr interpolationmode none
attr source packetDropReasonIsIncorrectlyReceived(packetDropped)
attr title "packet drop: incorrectly received, sum(packetBytes)"
scalar FinalTask.DRouter.eth[0].mac packetDropInterfaceDown:count 0
attr interpolationmode none
attr source packetDropReasonIsInterfaceDown(packetDropped)
attr title "packet drop: interface down, count"
scalar FinalTask.DRouter.eth[0].mac packetDropInterfaceDown:sum(packetBytes) 0
attr interpolationmode none
attr source packetDropReasonIsInterfaceDown(packetDropped)
attr title "packet drop: interface down, sum(packetBytes)"
scalar FinalTask.DRouter.eth[0].mac packetDropNotAddressedToUs:count 0
attr interpolationmode none
attr source packetDropReasonIsNotAddressedToUs(packetDropped)
attr title "packet drop: not addressed to us, count"
scalar FinalTask.DRouter.eth[0].mac packetDropNotAddressedToUs:sum(packetBytes) 0
attr interpolationmode none
attr source packetDropReasonIsNotAddressedToUs(packetDropped)
attr title "packet drop: not addressed to us, sum(packetBytes)"
scalar FinalTask.DRouter.eth[0].encap pauseSent:count 0
attr title "pause sent, count"
scalar FinalTask.DRouter.eth[0].encap pauseSent:sum 0
attr title "pause sent, sum"
scalar FinalTask.DRouter.eth[0].encap decapPk:count 1796315
attr interpolationmode none
attr source decapPk
attr title "packets decapsulated, count"
scalar FinalTask.DRouter.eth[0].encap decapPk:sum(packetBytes) 1882409570
attr interpolationmode none
attr source decapPk
attr title "packets decapsulated, sum(packetBytes)"
scalar FinalTask.DRouter.eth[0].encap encapPk:count 1881100
attr interpolationmode none
attr source encapPk
attr title "packets encapsulated, count"
scalar FinalTask.DRouter.eth[0].encap encapPk:sum(packetBytes) 1069750876
attr interpolationmode none
attr source encapPk
attr title "packets encapsulated, sum(packetBytes)"
scalar FinalTask.DRouter.ipv4.ip packetDropAddressResolutionFailed:count 0
attr interpolationmode none
attr source packetDropReasonIsAddressResolutionFailed(packetDropped)
attr title "packet drop: address resolution failed, count"
scalar FinalTask.DRouter.ipv4.ip packetDropAddressResolutionFailed:sum(packetBytes) 0
attr interpolationmode none
attr source packetDropReasonIsAddressResolutionFailed(packetDropped)
attr title "packet drop: address resolution failed, sum(packetBytes)"
scalar FinalTask.DRouter.ipv4.ip packetDropHopLimitReached:count 0
attr interpolationmode none
attr source packetDropReasonIsHopLimitReached(packetDropped)
attr title "packet drop: hop limit reached, count"
scalar FinalTask.DRouter.ipv4.ip packetDropHopLimitReached:sum(packetBytes) 0
attr interpolationmode none
attr source packetDropReasonIsHopLimitReached(packetDropped)
attr title "packet drop: hop limit reached, sum(packetBytes)"
scalar FinalTask.DRouter.ipv4.ip packetDropForwardingDisabled:count 0
attr interpolationmode none
attr source packetDropReasonIsForwardingDisabled(packetDropped)
attr title "packet drop: forwarding disabled, count"
scalar FinalTask.DRouter.ipv4.ip packetDropForwardingDisabled:sum(packetBytes) 0
attr interpolationmode none
attr source packetDropReasonIsForwardingDisabled(packetDropped)
attr title "packet drop: forwarding disabled, sum(packetBytes)"
scalar FinalTask.DRouter.ipv4.ip packetDropNoInterfaceFound:count 0
attr interpolationmode none
attr source packetDropReasonIsNoInterfaceFound(packetDropped)
attr title "packet drop: no interface found, count"
scalar FinalTask.DRouter.ipv4.ip packetDropNoInterfaceFound:sum(packetBytes) 0
attr interpolationmode none
attr source packetDropReasonIsNoInterfaceFound(packetDropped)
attr title "packet drop: no interface found, sum(packetBytes)"
scalar FinalTask.DRouter.ipv4.ip packetDropNoRouteFound:count 0
attr interpolationmode none
attr source packetDropReasonIsNoRouteFound(packetDropped)
attr title "packet drop: no route found, count"
scalar FinalTask.DRouter.ipv4.ip packetDropNoRouteFound:sum(packetBytes) 0
attr interpolationmode none
attr source packetDropReasonIsNoRouteFound(packetDropped)
attr title "packet drop: no route found, sum(packetBytes)"
scalar FinalTask.DRouter.ipv4.ip packetDropUndefined:count 0
attr interpolationmode none
attr source packetDropReasonIsUndefined(packetDropped)
attr title "packet drop: undefined, count"
scalar FinalTask.DRouter.ipv4.ip packetDropUndefined:sum(packetBytes) 0
attr interpolationmode none
attr source packetDropReasonIsUndefined(packetDropped)
attr title "packet drop: undefined, sum(packetBytes)"
scalar FinalTask.DRouter.ipv4.arp arpResolutionFailed:count 0
attr title "ARP failed resolutions, count"
scalar FinalTask.DRouter.ipv4.arp arpResolutionCompleted:count 170
attr title "ARP completed resolutions, count"
scalar FinalTask.DRouter.ipv4.arp arpResolutionInitiated:count 161
attr title "ARP initiated resolutions, count"
scalar FinalTask.DRouter.ipv4.arp arpReplySent:count 10
attr source arpReplySent
attr title "ARP replies sent, count"
scalar FinalTask.DRouter.ipv4.arp arpReplySent:sum(packetBytes) 280
attr source arpReplySent
attr title "ARP replies sent, sum(packetBytes)"
scalar FinalTask.DRouter.ipv4.arp arpRequestSent:count 161
attr source arpRequestSent
attr title "ARP request sent, count"
scalar FinalTask.DRouter.ipv4.arp arpRequestSent:sum(packetBytes) 4508
attr source arpRequestSent
attr title "ARP request sent, sum(packetBytes)"
scalar FinalTask.DISPRouter.lo[0].lo rcvdPkFromHl:count 0
attr interpolationmode none
attr source packetReceivedFromUpper
attr title "packets received from higher layer, count"
scalar FinalTask.DISPRouter.lo[0].lo rcvdPkFromHl:sum(packetBytes) 0
attr interpolationmode none
attr source packetReceivedFromUpper
attr title "packets received from higher layer, sum(packetBytes)"
scalar FinalTask.DISPRouter.lo[0].lo passedUpPk:count 0
attr interpolationmode none
attr source packetSentToUpper
attr title "packets passed to higher layer, count"
scalar FinalTask.DISPRouter.lo[0].lo passedUpPk:sum(packetBytes) 0
attr interpolationmode none
attr source packetSentToUpper
attr title "packets passed to higher layer, sum(packetBytes)"
scalar FinalTask.DISPRouter.ppp[0].ppp.queue packetPopped:count 1880929
attr interpolationmode none
attr title "packet popped, count"
scalar FinalTask.DISPRouter.ppp[0].ppp.queue packetPopped:sum(packetBytes) 1069746088
attr interpolationmode none
attr title "packet popped, sum(packetBytes)"
statistic FinalTask.DISPRouter.ppp[0].ppp.queue queueingTime:histogram
field count 1880929
field mean 1.9133511012434e-06
field stddev 1.2645157564314e-05
field min 0
field max 0.000228027354
field sum 3.5988775735106
field sqrsum 0.00030764632205113
attr interpolationmode none
attr source queueingTime(packetPopped)
attr title "queueing times, histogram"
attr unit s
bin	-inf	0
bin	0	1827377
bin	4e-06	1677
bin	8e-06	1644
bin	1.2e-05	1671
bin	1.6e-05	1641
bin	2e-05	1626
bin	2.4e-05	1665
bin	2.8e-05	1657
bin	3.2e-05	1678
bin	3.6e-05	1614
bin	4e-05	1673
bin	4.4e-05	1764
bin	4.8e-05	1570
bin	5.2e-05	1876
bin	5.6e-05	1659
bin	6e-05	1720
bin	6.4e-05	1782
bin	6.8e-05	1701
bin	7.2e-05	1730
bin	7.6e-05	1831
bin	8e-05	1852
bin	8.4e-05	1895
bin	8.8e-05	1839
bin	9.2e-05	2485
bin	9.6e-05	1920
bin	0.0001	1906
bin	0.000104	1947
bin	0.000108	1990
bin	0.000112	3007
bin	0.000116	1477
bin	0.00012	243
bin	0.000124	42
bin	0.000128	38
bin	0.000132	40
bin	0.000136	41
bin	0.00014	41
bin	0.000144	30
bin	0.000148	49
bin	0.000152	33
bin	0.000156	40
bin	0.00016	43
bin	0.000164	32
bin	0.000168	45
bin	0.000172	28
bin	0.000176	38
bin	0.00018	33
bin	0.000184	24
bin	0.000188	32
bin	0.000192	23
bin	0.000196	26
bin	0.0002	38
bin	0.000204	14
bin	0.000208	26
bin	0.000212	27
bin	0.000216	8
bin	0.00022	15
bin	0.000224	5
bin	0.000228	1
bin	0.000232	0
scalar FinalTask.DISPRouter.ppp[0].ppp.queue queueLength:max 17
attr interpolationmode sample-hold
attr source "count(packetPushed) - count(packetPopped) - count(packetRemoved) - count(packetDropped)"
attr title "queue length, max"
scalar FinalTask.DISPRouter.ppp[0].ppp.queue queueLength:timeavg 0.0017996473962575
attr interpolationmode sample-hold
attr source "count(packetPushed) - count(packetPopped) - count(packetRemoved) - count(packetDropped)"
attr title "queue length, timeavg"
scalar FinalTask.DISPRouter.ppp[0].ppp.queue packetPushed:count 1880929
attr interpolationmode none
attr title "packet pushed, count"
scalar FinalTask.DISPRouter.ppp[0].ppp.queue packetPushed:sum(packetBytes) 1069746088
attr interpolationmode none
attr title "packet pushed, sum(packetBytes)"
scalar FinalTask.DISPRouter.ppp[0].ppp.queue packetDropQueueOverflow:count 0
attr interpolationmode none
attr source packetDropReasonIsQueueOverflow(packetDropped)
attr title "packet drops: queue overflow, count"
scalar FinalTask.DISPRouter.ppp[0].ppp.queue packetDropQueueOverflow:sum(packetBytes) 0
attr interpolationmode none
attr source packetDropReasonIsQueueOverflow(packetDropped)
attr title "packet drops: queue overflow, sum(packetBytes)"
scalar FinalTask.DISPRouter.ppp[0].ppp.queue packetRemoved:count 0
attr interpolationmode none
attr title "packets removed, count"
scalar FinalTask.DISPRouter.ppp[0].ppp.queue packetRemoved:sum(packetBytes) 0
attr interpolationmode none
attr title "packets removed, sum(packetBytes)"
scalar FinalTask.DISPRouter.ppp[0].ppp transmissionState:timeavg 0.04331650363902
attr interpolationmode sample-hold
attr source transmissionStateChanged
attr title "tx state, timeavg"
scalar FinalTask.DISPRouter.ppp[0].ppp rxPkOk:count 1796145
attr interpolationmode none
attr source rxPkOk
attr title "packets received OK, count"
scalar FinalTask.DISPRouter.ppp[0].ppp rxPkOk:sum(packetBytes) 1891650843
attr interpolationmode none
attr source rxPkOk
attr title "packets received OK, sum(packetBytes)"
scalar FinalTask.DISPRouter.ppp[0].ppp txPk:count 1880929
attr interpolationmode none
attr source packetSentToLower
attr title "packets transmitted, count"
scalar FinalTask.DISPRouter.ppp[0].ppp txPk:sum(packetBytes) 1082912591
attr interpolationmode none
attr source packetSentToLower
attr title "packets transmitted, sum(packetBytes)"
scalar FinalTask.DISPRouter.ppp[0].ppp rcvdPkFromHl:count 1880929
attr interpolationmode none
attr source packetReceivedFromUpper
attr title "packets received from higher layer, count"
scalar FinalTask.DISPRouter.ppp[0].ppp rcvdPkFromHl:sum(packetBytes) 1069746088
attr interpolationmode none
attr source packetReceivedFromUpper
attr title "packets received from higher layer, sum(packetBytes)"
scalar FinalTask.DISPRouter.ppp[0].ppp passedUpPk:count 1796145
attr interpolationmode none
attr source packetSentToUpper
attr title "packets passed to higher layer, count"
scalar FinalTask.DISPRouter.ppp[0].ppp passedUpPk:sum(packetBytes) 1879077828
attr interpolationmode none
attr source packetSentToUpper
attr title "packets passed to higher layer, sum(packetBytes)"
scalar FinalTask.DISPRouter.ppp[0].ppp packetDropIncorrectlyReceived:count 0
attr interpolationmode none
attr source packetDropReasonIsIncorrectlyReceived(packetDropped)
attr title "packet drop: incorrectly received, count"
scalar FinalTask.DISPRouter.ppp[0].ppp packetDropIncorrectlyReceived:sum(packetBytes) 0
attr interpolationmode none
attr source packetDropReasonIsIncorrectlyReceived(packetDropped)
attr title "packet drop: incorrectly received, sum(packetBytes)"
scalar FinalTask.DISPRouter.ppp[0].ppp packetDropInterfaceDown:count 0
attr interpolationmode none
attr source packetDropReasonIsInterfaceDown(packetDropped)
attr title "packet drop: interface down, count"
scalar FinalTask.DISPRouter.ppp[0].ppp packetDropInterfaceDown:sum(packetBytes) 0
attr interpolationmode none
attr source packetDropReasonIsInterfaceDown(packetDropped)
attr title "packet drop: interface down, sum(packetBytes)"
scalar FinalTask.DISPRouter.eth[0].mac.queue packetPopped:count 556411
attr interpolationmode none
attr title "packet popped, count"
scalar FinalTask.DISPRouter.eth[0].mac.queue packetPopped:sum(packetBytes) 35906362
attr interpolationmode none
attr title "packet popped, sum(packetBytes)"
statistic FinalTask.DISPRouter.eth[0].mac.queue queueingTime:histogram
field count 556411
field mean 7.8879652303783e-08
field stddev 5.2144229648257e-06
field min 0
field max 0.00064512
field sum 0.043889506218
field sqrsum 1.5132364985794e-05
attr interpolationmode none
attr source queueingTime(packetPopped)
attr title "queueing times, histogram"
attr unit s
bin	-inf	0
bin	0	556173
bin	9.6e-06	13
bin	1.92e-05	18
bin	2.88e-05	8
bin	3.84e-05	16
bin	4.8e-05	7
bin	5.76e-05	14
bin	6.72e-05	7
bin	7.68e-05	7
bin	8.64e-05	14
bin	9.6e-05	5
bin	0.0001056	10
bin	0.0001152	5
bin	0.0001248	8
bin	0.0001344	4
bin	0.000144	4
bin	0.0001536	6
bin	0.0001632	3
bin	0.0001728	6
bin	0.0001824	3
bin	0.000192	7
bin	0.0002016	3
bin	0.0002112	2
bin	0.0002208	4
bin	0.0002304	2
bin	0.00024	3
bin	0.0002496	1
bin	0.0002592	2
bin	0.0002688	1
bin	0.0002784	1
bin	0.000288	2
bin	0.0002976	1
bin	0.0003072	2
bin	0.0003168	1
bin	0.0003264	2
bin	0.000336	1
bin	0.0003456	1
bin	0.0003552	2
bin	0.0003648	1
bin	0.0003744	2
bin	0.000384	1
bin	0.0003936	2
bin	0.0004032	1
bin	0.0004128	1
bin	0.0004224	2
bin	0.000432	1
bin	0.0004416	2
bin	0.0004512	1
bin	0.0004608	2
bin	0.0004704	1
bin	0.00048	1
bin	0.0004896	2
bin	0.0004992	1
bin	0.0005088	2
bin	0.0005184	1
bin	0.000528	2
bin	0.0005376	1
bin	0.0005472	1
bin	0.0005568	2
bin	0.0005664	1
bin	0.000576	2
bin	0.0005856	1
bin	0.0005952	2
bin	0.0006048	1
bin	0.0006144	1
bin	0.000624	2
bin	0.0006336	1
bin	0.0006432	1
bin	0.0006528	0
scalar FinalTask.DISPRouter.eth[0].mac.queue queueLength:max 96
attr interpolationmode sample-hold
attr source "count(packetPushed) - count(packetPopped) - count(packetRemoved) - count(packetDropped)"
attr title "queue length, max"
scalar FinalTask.DISPRouter.eth[0].mac.queue queueLength:timeavg 2.1951511205278e-05
attr interpolationmode sample-hold
attr source "count(packetPushed) - count(packetPopped) - count(packetRemoved) - count(packetDropped)"
attr title "queue length, timeavg"
scalar FinalTask.DISPRouter.eth[0].mac.queue packetPushed:count 556411
attr interpolationmode none
attr title "packet pushed, count"
scalar FinalTask.DISPRouter.eth[0].mac.queue packetPushed:sum(packetBytes) 35906362
attr interpolationmode none
attr title "packet pushed, sum(packetBytes)"
scalar FinalTask.DISPRouter.eth[0].mac.queue packetDropQueueOverflow:count 0
attr interpolationmode none
attr source packetDropReasonIsQueueOverflow(packetDropped)
attr title "packet drops: queue overflow, count"
scalar FinalTask.DISPRouter.eth[0].mac.queue packetDropQueueOverflow:sum(packetBytes) 0
attr interpolationmode none
attr source packetDropReasonIsQueueOverflow(packetDropped)
attr title "packet drops: queue overflow, sum(packetBytes)"
scalar FinalTask.DISPRouter.eth[0].mac.queue packetRemoved:count 0
attr interpolationmode none
attr title "packets removed, count"
scalar FinalTask.DISPRouter.eth[0].mac.queue packetRemoved:sum(packetBytes) 0
attr interpolationmode none
attr title "packets removed, sum(packetBytes)"
scalar FinalTask.DISPRouter.eth[0].mac "simulated time" 2000
scalar FinalTask.DISPRouter.eth[0].mac full-duplex 1
scalar FinalTask.DISPRouter.eth[0].mac "frames/sec sent" 278.2055
scalar FinalTask.DISPRouter.eth[0].mac "frames/sec rcvd" 320.8585
scalar FinalTask.DISPRouter.eth[0].mac "bits/sec sent" 143625.448
scalar FinalTask.DISPRouter.eth[0].mac "bits/sec rcvd" 3847069.948
scalar FinalTask.DISPRouter.eth[0].mac "rx channel idle (%)" 100
scalar FinalTask.DISPRouter.eth[0].mac "rx channel utilization (%)" 0
scalar FinalTask.DISPRouter.eth[0].mac rxPausePkUnits:count 0
attr interpolationmode none
attr title "pause units received, count"
scalar FinalTask.DISPRouter.eth[0].mac rxPausePkUnits:sum 0
attr interpolationmode none
attr title "pause units received, sum"
scalar FinalTask.DISPRouter.eth[0].mac txPausePkUnits:count 0
attr interpolationmode none
attr title "pause units sent, count"
scalar FinalTask.DISPRouter.eth[0].mac txPausePkUnits:sum 0
attr interpolationmode none
attr title "pause units sent, sum"
scalar FinalTask.DISPRouter.eth[0].mac rxPkOk:count 641717
attr interpolationmode none
attr source rxPkOk
attr title "packets received OK, count"
scalar FinalTask.DISPRouter.eth[0].mac rxPkOk:sum(packetBytes) 961767487
attr interpolationmode none
attr source rxPkOk
attr title "packets received OK, sum(packetBytes)"
scalar FinalTask.DISPRouter.eth[0].mac txPk:count 556411
attr interpolationmode none
attr source packetSentToLower
attr title "packets transmitted, count"
scalar FinalTask.DISPRouter.eth[0].mac txPk:sum(packetBytes) 35906362
attr interpolationmode none
attr source packetSentToLower
attr title "packets transmitted, sum(packetBytes)"
scalar FinalTask.DISPRouter.eth[0].mac packetReceivedFromUpper:count 556411
attr interpolationmode none
attr source packetReceivedFromUpper
attr title "packet bytes from higher layer, count"
scalar FinalTask.DISPRouter.eth[0].mac packetReceivedFromUpper:sum(packetBytes) 32581930
attr interpolationmode none
attr source packetReceivedFromUpper
attr title "packet bytes from higher layer, sum(packetBytes)"
scalar FinalTask.DISPRouter.eth[0].mac passedUpPk:count 641717
attr interpolationmode none
attr source packetSentToUpper
attr title "packets passed to higher layer, count"
scalar FinalTask.DISPRouter.eth[0].mac passedUpPk:sum(packetBytes) 961767487
attr interpolationmode none
attr source packetSentToUpper
attr title "packets passed to higher layer, sum(packetBytes)"
scalar FinalTask.DISPRouter.eth[0].mac packetDropIncorrectlyReceived:count 0
attr interpolationmode none
attr source packetDropReasonIsIncorrectlyReceived(packetDropped)
attr title "packet drop: incorrectly received, count"
scalar FinalTask.DISPRouter.eth[0].mac packetDropIncorrectlyReceived:sum(packetBytes) 0
attr interpolationmode none
attr source packetDropReasonIsIncorrectlyReceived(packetDropped)
attr title "packet drop: incorrectly received, sum(packetBytes)"
scalar FinalTask.DISPRouter.eth[0].mac packetDropInterfaceDown:count 0
attr interpolationmode none
attr source packetDropReasonIsInterfaceDown(packetDropped)
attr title "packet drop: interface down, count"
scalar FinalTask.DISPRouter.eth[0].mac packetDropInterfaceDown:sum(packetBytes) 0
attr interpolationmode none
attr source packetDropReasonIsInterfaceDown(packetDropped)
attr title "packet drop: interface down, sum(packetBytes)"
scalar FinalTask.DISPRouter.eth[0].mac packetDropNotAddressedToUs:count 0
attr interpolationmode none
attr source packetDropReasonIsNotAddressedToUs(packetDropped)
attr title "packet drop: not addressed to us, count"
scalar FinalTask.DISPRouter.eth[0].mac packetDropNotAddressedToUs:sum(packetBytes) 0
attr interpolationmode none
attr source packetDropReasonIsNotAddressedToUs(packetDropped)
attr title "packet drop: not addressed to us, sum(packetBytes)"
scalar FinalTask.DISPRouter.eth[0].encap pauseSent:count 0
attr title "pause sent, count"
scalar FinalTask.DISPRouter.eth[0].encap pauseSent:sum 0
attr title "pause sent, sum"
scalar FinalTask.DISPRouter.eth[0].encap decapPk:count 641717
attr interpolationmode none
attr source decapPk
attr title "packets decapsulated, count"
scalar FinalTask.DISPRouter.eth[0].encap decapPk:sum(packetBytes) 950216581
attr interpolationmode none
attr source decapPk
attr title "packets decapsulated, sum(packetBytes)"
scalar FinalTask.DISPRouter.eth[0].encap encapPk:count 556411
attr interpolationmode none
attr source encapPk
attr title "packets encapsulated, count"
scalar FinalTask.DISPRouter.eth[0].encap encapPk:sum(packetBytes) 22566532
attr interpolationmode none
attr source encapPk
attr title "packets encapsulated, sum(packetBytes)"
scalar FinalTask.DISPRouter.eth[1].mac.queue packetPopped:count 1239785
attr interpolationmode none
attr title "packet popped, count"
scalar FinalTask.DISPRouter.eth[1].mac.queue packetPopped:sum(packetBytes) 1878829262
attr interpolationmode none
attr title "packet popped, sum(packetBytes)"
statistic FinalTask.DISPRouter.eth[1].mac.queue queueingTime:histogram
field count 1239785
field mean 2.6709375341886e-06
field stddev 0.00012873107130541
field min 0
field max 0.01019792
field sum 3.311388290824
field sqrsum 0.020554159038617
attr interpolationmode none
attr source queueingTime(packetPopped)
attr title "queueing times, histogram"
attr unit s
bin	-inf	0
bin	-0.5	0
bin	-0.48	0
bin	-0.46	0
bin	-0.44	0
bin	-0.42	0
bin	-0.4	0
bin	-0.38	0
bin	-0.36	0
bin	-0.34	0
bin	-0.32	0
bin	-0.3	0
bin	-0.28	0
bin	-0.26	0
bin	-0.24	0
bin	-0.22	0
bin	-0.2	0
bin	-0.18	0
bin	-0.16	0
bin	-0.14	0
bin	-0.12	0
bin	-0.1	0
bin	-0.08	0
bin	-0.06	0
bin	-0.04	0
bin	-0.02	0
bin	0	1239785
bin	0.02	0
bin	0.04	0
bin	0.06	0
bin	0.08	0
bin	0.1	0
bin	0.12	0
bin	0.14	0
bin	0.16	0
bin	0.18	0
bin	0.2	0
bin	0.22	0
bin	0.24	0
bin	0.26	0
bin	0.28	0
bin	0.3	0
bin	0.32	0
bin	0.34	0
bin	0.36	0
bin	0.38	0
bin	0.4	0
bin	0.42	0
bin	0.44	0
bin	0.46	0
bin	0.48	0
bin	0.5	0
scalar FinalTask.DISPRouter.eth[1].mac.queue queueLength:max 83
attr interpolationmode sample-hold
attr source "count(packetPushed) - count(packetPopped) - count(packetRemoved) - count(packetDropped)"
attr title "queue length, max"
scalar FinalTask.DISPRouter.eth[1].mac.queue queueLength:timeavg 0.001655786629962
attr interpolationmode sample-hold
attr source "count(packetPushed) - count(packetPopped) - count(packetRemoved) - count(packetDropped)"
attr title "queue length, timeavg"
scalar FinalTask.DISPRouter.eth[1].mac.queue packetPushed:count 1239785
attr interpolationmode none
attr title "packet pushed, count"
scalar FinalTask.DISPRouter.eth[1].mac.queue packetPushed:sum(packetBytes) 1878829262
attr interpolationmode none
attr title "packet pushed, sum(packetBytes)"
scalar FinalTask.DISPRouter.eth[1].mac.queue packetDropQueueOverflow:count 0
attr interpolationmode none
attr source packetDropReasonIsQueueOverflow(packetDropped)
attr title "packet drops: queue overflow, count"
scalar FinalTask.DISPRouter.eth[1].mac.queue packetDropQueueOverflow:sum(packetBytes) 0
attr interpolationmode none
attr source packetDropReasonIsQueueOverflow(packetDropped)
attr title "packet drops: queue overflow, sum(packetBytes)"
scalar FinalTask.DISPRouter.eth[1].mac.queue packetRemoved:count 0
attr interpolationmode none
attr title "packets removed, count"
scalar FinalTask.DISPRouter.eth[1].mac.queue packetRemoved:sum(packetBytes) 0
attr interpolationmode none
attr title "packets removed, sum(packetBytes)"
scalar FinalTask.DISPRouter.eth[1].mac "simulated time" 2000
scalar FinalTask.DISPRouter.eth[1].mac full-duplex 1
scalar FinalTask.DISPRouter.eth[1].mac "frames/sec sent" 619.8925
scalar FinalTask.DISPRouter.eth[1].mac "frames/sec rcvd" 619.6315
scalar FinalTask.DISPRouter.eth[1].mac "bits/sec sent" 7515317.048
scalar FinalTask.DISPRouter.eth[1].mac "bits/sec rcvd" 596040.184
scalar FinalTask.DISPRouter.eth[1].mac "rx channel idle (%)" 100
scalar FinalTask.DISPRouter.eth[1].mac "rx channel utilization (%)" 0
scalar FinalTask.DISPRouter.eth[1].mac rxPausePkUnits:count 0
attr interpolationmode none
attr title "pause units received, count"
scalar FinalTask.DISPRouter.eth[1].mac rxPausePkUnits:sum 0
attr interpolationmode none
attr title "pause units received, sum"
scalar FinalTask.DISPRouter.eth[1].mac txPausePkUnits:count 0
attr interpolationmode none
attr title "pause units sent, count"
scalar FinalTask.DISPRouter.eth[1].mac txPausePkUnits:sum 0
attr interpolationmode none
attr title "pause units sent, sum"
scalar FinalTask.DISPRouter.eth[1].mac rxPkOk:count 1239263
attr interpolationmode none
attr source rxPkOk
attr title "packets received OK, count"
scalar FinalTask.DISPRouter.eth[1].mac rxPkOk:sum(packetBytes) 149010046
attr interpolationmode none
attr source rxPkOk
attr title "packets received OK, sum(packetBytes)"
scalar FinalTask.DISPRouter.eth[1].mac txPk:count 1239785
attr interpolationmode none
attr source packetSentToLower
attr title "packets transmitted, count"
scalar FinalTask.DISPRouter.eth[1].mac txPk:sum(packetBytes) 1878829262
attr interpolationmode none
attr source packetSentToLower
attr title "packets transmitted, sum(packetBytes)"
scalar FinalTask.DISPRouter.eth[1].mac packetReceivedFromUpper:count 1239785
attr interpolationmode none
attr source packetReceivedFromUpper
attr title "packet bytes from higher layer, count"
scalar FinalTask.DISPRouter.eth[1].mac packetReceivedFromUpper:sum(packetBytes) 1878828854
attr interpolationmode none
attr source packetReceivedFromUpper
attr title "packet bytes from higher layer, sum(packetBytes)"
scalar FinalTask.DISPRouter.eth[1].mac passedUpPk:count 1239263
attr interpolationmode none
attr source packetSentToUpper
attr title "packets passed to higher layer, count"
scalar FinalTask.DISPRouter.eth[1].mac passedUpPk:sum(packetBytes) 149010046
attr interpolationmode none
attr source packetSentToUpper
attr title "packets passed to higher layer, sum(packetBytes)"
scalar FinalTask.DISPRouter.eth[1].mac packetDropIncorrectlyReceived:count 0
attr interpolationmode none
attr source packetDropReasonIsIncorrectlyReceived(packetDropped)
attr title "packet drop: incorrectly received, count"
scalar FinalTask.DISPRouter.eth[1].mac packetDropIncorrectlyReceived:sum(packetBytes) 0
attr interpolationmode none
attr source packetDropReasonIsIncorrectlyReceived(packetDropped)
attr title "packet drop: incorrectly received, sum(packetBytes)"
scalar FinalTask.DISPRouter.eth[1].mac packetDropInterfaceDown:count 0
attr interpolationmode none
attr source packetDropReasonIsInterfaceDown(packetDropped)
attr title "packet drop: interface down, count"
scalar FinalTask.DISPRouter.eth[1].mac packetDropInterfaceDown:sum(packetBytes) 0
attr interpolationmode none
attr source packetDropReasonIsInterfaceDown(packetDropped)
attr title "packet drop: interface down, sum(packetBytes)"
scalar FinalTask.DISPRouter.eth[1].mac packetDropNotAddressedToUs:count 0
attr interpolationmode none
attr source packetDropReasonIsNotAddressedToUs(packetDropped)
attr title "packet drop: not addressed to us, count"
scalar FinalTask.DISPRouter.eth[1].mac packetDropNotAddressedToUs:sum(packetBytes) 0
attr interpolationmode none
attr source packetDropReasonIsNotAddressedToUs(packetDropped)
attr title "packet drop: not addressed to us, sum(packetBytes)"
scalar FinalTask.DISPRouter.eth[1].encap pauseSent:count 0
attr title "pause sent, count"
scalar FinalTask.DISPRouter.eth[1].encap pauseSent:sum 0
attr title "pause sent, sum"
scalar FinalTask.DISPRouter.eth[1].encap decapPk:count 1239263
attr interpolationmode none
attr source decapPk
attr title "packets decapsulated, count"
scalar FinalTask.DISPRouter.eth[1].encap decapPk:sum(packetBytes) 126703312
attr interpolationmode none
attr source decapPk
attr title "packets decapsulated, sum(packetBytes)"
scalar FinalTask.DISPRouter.eth[1].encap encapPk:count 1239785
attr interpolationmode none
attr source encapPk
attr title "packets encapsulated, count"
scalar FinalTask.DISPRouter.eth[1].encap encapPk:sum(packetBytes) 1856512724
attr interpolationmode none
attr source encapPk
attr title "packets encapsulated, sum(packetBytes)"
scalar FinalTask.DISPRouter.ipv4.ip packetDropAddressResolutionFailed:count 0
attr interpolationmode none
attr source packetDropReasonIsAddressResolutionFailed(packetDropped)
attr title "packet drop: address resolution failed, count"
scalar FinalTask.DISPRouter.ipv4.ip packetDropAddressResolutionFailed:sum(packetBytes) 0
attr interpolationmode none
attr source packetDropReasonIsAddressResolutionFailed(packetDropped)
attr title "packet drop: address resolution failed, sum(packetBytes)"
scalar FinalTask.DISPRouter.ipv4.ip packetDropHopLimitReached:count 0
attr interpolationmode none
attr source packetDropReasonIsHopLimitReached(packetDropped)
attr title "packet drop: hop limit reached, count"
scalar FinalTask.DISPRouter.ipv4.ip packetDropHopLimitReached:sum(packetBytes) 0
attr interpolationmode none
attr source packetDropReasonIsHopLimitReached(packetDropped)
attr title "packet drop: hop limit reached, sum(packetBytes)"
scalar FinalTask.DISPRouter.ipv4.ip packetDropForwardingDisabled:count 0
attr interpolationmode none
attr source packetDropReasonIsForwardingDisabled(packetDropped)
attr title "packet drop: forwarding disabled, count"
scalar FinalTask.DISPRouter.ipv4.ip packetDropForwardingDisabled:sum(packetBytes) 0
attr interpolationmode none
attr source packetDropReasonIsForwardingDisabled(packetDropped)
attr title "packet drop: forwarding disabled, sum(packetBytes)"
scalar FinalTask.DISPRouter.ipv4.ip packetDropNoInterfaceFound:count 0
attr interpolationmode none
attr source packetDropReasonIsNoInterfaceFound(packetDropped)
attr title "packet drop: no interface found, count"
scalar FinalTask.DISPRouter.ipv4.ip packetDropNoInterfaceFound:sum(packetBytes) 0
attr interpolationmode none
attr source packetDropReasonIsNoInterfaceFound(packetDropped)
attr title "packet drop: no interface found, sum(packetBytes)"
scalar FinalTask.DISPRouter.ipv4.ip packetDropNoRouteFound:count 0
attr interpolationmode none
attr source packetDropReasonIsNoRouteFound(packetDropped)
attr title "packet drop: no route found, count"
scalar FinalTask.DISPRouter.ipv4.ip packetDropNoRouteFound:sum(packetBytes) 0
attr interpolationmode none
attr source packetDropReasonIsNoRouteFound(packetDropped)
attr title "packet drop: no route found, sum(packetBytes)"
scalar FinalTask.DISPRouter.ipv4.ip packetDropUndefined:count 0
attr interpolationmode none
attr source packetDropReasonIsUndefined(packetDropped)
attr title "packet drop: undefined, count"
scalar FinalTask.DISPRouter.ipv4.ip packetDropUndefined:sum(packetBytes) 0
attr interpolationmode none
attr source packetDropReasonIsUndefined(packetDropped)
attr title "packet drop: undefined, sum(packetBytes)"
scalar FinalTask.DISPRouter.ipv4.arp arpResolutionFailed:count 0
attr title "ARP failed resolutions, count"
scalar FinalTask.DISPRouter.ipv4.arp arpResolutionCompleted:count 51
attr title "ARP completed resolutions, count"
scalar FinalTask.DISPRouter.ipv4.arp arpResolutionInitiated:count 26
attr title "ARP initiated resolutions, count"
scalar FinalTask.DISPRouter.ipv4.arp arpReplySent:count 25
attr source arpReplySent
attr title "ARP replies sent, count"
scalar FinalTask.DISPRouter.ipv4.arp arpReplySent:sum(packetBytes) 700
attr source arpReplySent
attr title "ARP replies sent, sum(packetBytes)"
scalar FinalTask.DISPRouter.ipv4.arp arpRequestSent:count 26
attr source arpRequestSent
attr title "ARP request sent, count"
scalar FinalTask.DISPRouter.ipv4.arp arpRequestSent:sum(packetBytes) 728
attr source arpRequestSent
attr title "ARP request sent, sum(packetBytes)"
scalar FinalTask.HTTPServer.lo[0].lo rcvdPkFromHl:count 0
attr interpolationmode none
attr source packetReceivedFromUpper
attr title "packets received from higher layer, count"
scalar FinalTask.HTTPServer.lo[0].lo rcvdPkFromHl:sum(packetBytes) 0
attr interpolationmode none
attr source packetReceivedFromUpper
attr title "packets received from higher layer, sum(packetBytes)"
scalar FinalTask.HTTPServer.lo[0].lo passedUpPk:count 0
attr interpolationmode none
attr source packetSentToUpper
attr title "packets passed to higher layer, count"
scalar FinalTask.HTTPServer.lo[0].lo passedUpPk:sum(packetBytes) 0
attr interpolationmode none
attr source packetSentToUpper
attr title "packets passed to higher layer, sum(packetBytes)"
scalar FinalTask.HTTPServer.eth[0].mac.queue packetPopped:count 641725
attr interpolationmode none
attr title "packet popped, count"
scalar FinalTask.HTTPServer.eth[0].mac.queue packetPopped:sum(packetBytes) 961779631
attr interpolationmode none
attr title "packet popped, sum(packetBytes)"
statistic FinalTask.HTTPServer.eth[0].mac.queue queueingTime:histogram
field count 641725
field mean 0.00043540805459345
field stddev 0.0025650014240147
field min 0
field max 0.04847776
field sum 279.41223383398
field sqrsum 4.3437096089837
attr interpolationmode none
attr source queueingTime(packetPopped)
attr title "queueing times, histogram"
attr unit s
bin	-inf	0
bin	0	618561
bin	0.00064	1294
bin	0.00128	1106
bin	0.00192	1052
bin	0.00256	1212
bin	0.0032	973
bin	0.00384	927
bin	0.00448	884
bin	0.00512	863
bin	0.00576	997
bin	0.0064	791
bin	0.00704	746
bin	0.00768	702
bin	0.00832	682
bin	0.00896	765
bin	0.0096	603
bin	0.01024	573
bin	0.01088	540
bin	0.01152	513
bin	0.01216	590
bin	0.0128	478
bin	0.01344	449
bin	0.01408	417
bin	0.01472	396
bin	0.01536	432
bin	0.016	344
bin	0.01664	330
bin	0.01728	309
bin	0.01792	275
bin	0.01856	318
bin	0.0192	251
bin	0.01984	239
bin	0.02048	228
[...]
attr source packetDropReasonIsNotAddressedToUs(packetDropped)
attr title "packet drops: not addressed to us, count"
scalar FinalTask.Client[7].wlan[0].mac.dcf packetDropNotAddressedToUs:sum(packetBytes) 2963034563
attr interpolationmode none
attr source packetDropReasonIsNotAddressedToUs(packetDropped)
attr title "packet drops: not addressed to us, sum(packetBytes)"
scalar FinalTask.Client[7].wlan[0].mac.dcf packetDropQueueOverflow:count 0
attr interpolationmode none
attr source packetDropReasonIsQueueOverflow(packetDropped)
attr title "packet drops: queue overflow, count"
scalar FinalTask.Client[7].wlan[0].mac.dcf packetDropQueueOverflow:sum(packetBytes) 0
attr interpolationmode none
attr source packetDropReasonIsQueueOverflow(packetDropped)
attr title "packet drops: queue overflow, sum(packetBytes)"
scalar FinalTask.Client[7].wlan[0].mac.dcf packetDropRetryLimitReached:count 0
attr interpolationmode none
attr source packetDropReasonIsRetryLimitReached(packetDropped)
attr title "packet drops: retry limit reached, count"
scalar FinalTask.Client[7].wlan[0].mac.dcf packetDropRetryLimitReached:sum(packetBytes) 0
attr interpolationmode none
attr source packetDropReasonIsRetryLimitReached(packetDropped)
attr title "packet drops: retry limit reached, sum(packetBytes)"
scalar FinalTask.Client[7].wlan[0].mac.dcf linkBroken:count 0
attr interpolationmode none
attr title "link breaks, count"
scalar FinalTask.Client[7].wlan[0].mac packetReceivedFromLower:count 10424357
attr interpolationmode none
attr title "packets received from lower layer, count"
scalar FinalTask.Client[7].wlan[0].mac packetReceivedFromLower:sum(packetBytes) 3081706481
attr interpolationmode none
attr title "packets received from lower layer, sum(packetBytes)"
scalar FinalTask.Client[7].wlan[0].mac packetSentToLower:count 212383
attr interpolationmode none
attr title "packets sent to lower layer, count"
scalar FinalTask.Client[7].wlan[0].mac packetSentToLower:sum(packetBytes) 7448684
attr interpolationmode none
attr title "packets sent to lower layer, sum(packetBytes)"
scalar FinalTask.Client[7].wlan[0].mac packetReceivedFromUpper:count 70711
attr interpolationmode none
attr title "packets received from upper layer, count"
scalar FinalTask.Client[7].wlan[0].mac packetReceivedFromUpper:sum(packetBytes) 3432748
attr interpolationmode none
attr title "packets received from upper layer, sum(packetBytes)"
scalar FinalTask.Client[7].wlan[0].mac packetSentToUpper:count 71159
attr interpolationmode none
attr title "packets sent to upper layer, count"
scalar FinalTask.Client[7].wlan[0].mac packetSentToUpper:sum(packetBytes) 105574214
attr interpolationmode none
attr title "packets sent to upper layer, sum(packetBytes)"
scalar FinalTask.Client[7].wlan[0].mac packetDrop:count 10192681
attr interpolationmode none
attr source packetDropped
attr title "packet drops, count"
scalar FinalTask.Client[7].wlan[0].mac packetDrop:sum(packetBytes) 2970236211
attr interpolationmode none
attr source packetDropped
attr title "packet drops, sum(packetBytes)"
scalar FinalTask.Client[7].wlan[0].mac packetDropIncorrectlyReceived:count 10212
attr interpolationmode none
attr source packetDropReasonIsIncorrectlyReceived(packetDropped)
attr title "packet drops: incorrectly received, count"
scalar FinalTask.Client[7].wlan[0].mac packetDropIncorrectlyReceived:sum(packetBytes) 7201594
attr interpolationmode none
attr source packetDropReasonIsIncorrectlyReceived(packetDropped)
attr title "packet drops: incorrectly received, sum(packetBytes)"
scalar FinalTask.Client[7].wlan[0].mac packetDropNotAddressedToUs:count 10182468
attr interpolationmode none
attr source packetDropReasonIsNotAddressedToUs(packetDropped)
attr title "packet drops: not addressed to us, count"
scalar FinalTask.Client[7].wlan[0].mac packetDropNotAddressedToUs:sum(packetBytes) 2963034563
attr interpolationmode none
attr source packetDropReasonIsNotAddressedToUs(packetDropped)
attr title "packet drops: not addressed to us, sum(packetBytes)"
scalar FinalTask.Client[7].wlan[0].mac packetDropQueueOverflow:count 0
attr interpolationmode none
attr source packetDropReasonIsQueueOverflow(packetDropped)
attr title "packet drops: queue overflow, count"
scalar FinalTask.Client[7].wlan[0].mac packetDropQueueOverflow:sum(packetBytes) 0
attr interpolationmode none
attr source packetDropReasonIsQueueOverflow(packetDropped)
attr title "packet drops: queue overflow, sum(packetBytes)"
scalar FinalTask.Client[7].wlan[0].mac packetDropRetryLimitReached:count 0
attr interpolationmode none
attr source packetDropReasonIsRetryLimitReached(packetDropped)
attr title "packet drops: retry limit reached, count"
scalar FinalTask.Client[7].wlan[0].mac packetDropRetryLimitReached:sum(packetBytes) 0
attr interpolationmode none
attr source packetDropReasonIsRetryLimitReached(packetDropped)
attr title "packet drops: retry limit reached, sum(packetBytes)"
scalar FinalTask.Client[7].wlan[0].mac packetDropDuplicateDetected:count 0
attr interpolationmode none
attr source packetDropReasonIsDuplicateDetected(packetDropped)
attr title "packet drops: duplicate detected, count"
scalar FinalTask.Client[7].wlan[0].mac packetDropDuplicateDetected:sum(packetBytes) 0
attr interpolationmode none
attr source packetDropReasonIsDuplicateDetected(packetDropped)
attr title "packet drops: duplicate detected, sum(packetBytes)"
scalar FinalTask.Client[7].wlan[0].mac packetDropOther:count 1
attr interpolationmode none
attr source packetDropReasonIsOther(packetDropped)
attr title "packet drops: other, count"
scalar FinalTask.Client[7].wlan[0].mac packetDropOther:sum(packetBytes) 54
attr interpolationmode none
attr source packetDropReasonIsOther(packetDropped)
attr title "packet drops: other, sum(packetBytes)"
scalar FinalTask.Client[7].wlan[0].mac linkBroken:count 0
attr interpolationmode none
attr title "link breaks, count"
statistic FinalTask.Client[7].wlan[0].radio radioChannel:histogram
field count 4
field mean 0
field stddev 0
field min 0
field max 0
field sum 0
field sqrsum 0
attr interpolationmode sample-hold
attr source radioChannelChanged
attr title "Radio channel, histogram"
bin	-inf	0
bin	-0.5	0
bin	-0.48	0
bin	-0.46	0
bin	-0.44	0
bin	-0.42	0
bin	-0.4	0
bin	-0.38	0
bin	-0.36	0
bin	-0.34	0
bin	-0.32	0
bin	-0.3	0
bin	-0.28	0
bin	-0.26	0
bin	-0.24	0
bin	-0.22	0
bin	-0.2	0
bin	-0.18	0
bin	-0.16	0
bin	-0.14	0
bin	-0.12	0
bin	-0.1	0
bin	-0.08	0
bin	-0.06	0
bin	-0.04	0
bin	-0.02	0
bin	0	4
bin	0.02	0
bin	0.04	0
bin	0.06	0
bin	0.08	0
bin	0.1	0
bin	0.12	0
bin	0.14	0
bin	0.16	0
bin	0.18	0
bin	0.2	0
bin	0.22	0
bin	0.24	0
bin	0.26	0
bin	0.28	0
bin	0.3	0
bin	0.32	0
bin	0.34	0
bin	0.36	0
bin	0.38	0
bin	0.4	0
bin	0.42	0
bin	0.44	0
bin	0.46	0
bin	0.48	0
bin	0.5	0
scalar FinalTask.Client[7].wlan[0].radio radioMode:count 424769
attr interpolationmode sample-hold
attr source radioModeChanged
attr title "Radio mode, count"
scalar FinalTask.Client[7].wlan[0].radio receptionState:count 21280639
attr interpolationmode sample-hold
attr source receptionStateChanged
attr title "Radio reception state, count"
scalar FinalTask.Client[7].wlan[0].radio transmissionState:count 849532
attr interpolationmode sample-hold
attr source transmissionStateChanged
attr title "Radio transmission state, count"
statistic FinalTask.Client[7].wlan[0].radio minSnir:histogram
field count 10424357
field mean 98079.516138115
field stddev 174624.85966509
field min 0.013490221977907
field max 1239968.6622603
field sum 1022415890611
field sqrsum 4.1815671662511e+17
attr source minimumSnir(packetSentToUpper)
attr title "Min SNIR, histogram"
bin	-inf	0
bin	0	4265136
bin	20000	408079
bin	40000	0
bin	60000	0
bin	80000	0
bin	100000	5322898
bin	120000	0
bin	140000	0
bin	160000	0
bin	180000	0
bin	200000	0
bin	220000	0
bin	240000	214020
bin	260000	0
bin	280000	0
bin	300000	0
bin	320000	0
bin	340000	0
bin	360000	0
bin	380000	0
bin	400000	0
bin	420000	0
bin	440000	0
bin	460000	0
bin	480000	0
bin	500000	0
bin	520000	0
bin	540000	0
bin	560000	0
bin	580000	0
bin	600000	0
bin	620000	0
bin	640000	0
bin	660000	0
bin	680000	0
bin	700000	0
bin	720000	0
bin	740000	0
bin	760000	0
bin	780000	0
bin	800000	0
bin	820000	0
bin	840000	0
bin	860000	0
bin	880000	0
bin	900000	0
bin	920000	0
bin	940000	0
bin	960000	0
bin	980000	0
bin	1000000	0
bin	1020000	0
bin	1040000	0
bin	1060000	0
bin	1080000	0
bin	1100000	0
bin	1120000	0
bin	1140000	0
bin	1160000	0
bin	1180000	0
bin	1200000	0
bin	1220000	214224
bin	1240000	0
bin	1260000	0
bin	1280000	0
bin	1300000	0
bin	1320000	0
bin	1340000	0
bin	1360000	0
bin	1380000	0
bin	1400000	0
bin	1420000	0
bin	1440000	0
bin	1460000	0
bin	1480000	0
bin	1500000	0
bin	1520000	0
bin	1540000	0
bin	1560000	0
statistic FinalTask.Client[7].wlan[0].radio packetErrorRate:histogram
field count 10424357
field mean 0.00097927527048862
field stddev 0.03127570298923
field min 0
field max 1
field sum 10208.315020845
field sqrsum 10206.784862863
attr source packetErrorRate(packetSentToUpper)
attr title "Packet error rate, histogram"
bin	-inf	0
bin	-0.5	0
bin	-0.48	0
bin	-0.46	0
bin	-0.44	0
bin	-0.42	0
bin	-0.4	0
bin	-0.38	0
bin	-0.36	0
bin	-0.34	0
bin	-0.32	0
bin	-0.3	0
bin	-0.28	0
bin	-0.26	0
bin	-0.24	0
bin	-0.22	0
bin	-0.2	0
bin	-0.18	0
bin	-0.16	0
bin	-0.14	0
bin	-0.12	0
bin	-0.1	0
bin	-0.08	0
bin	-0.06	0
bin	-0.04	0
bin	-0.02	0
bin	0	10414135
bin	0.02	0
bin	0.04	13
bin	0.06	0
bin	0.08	0
bin	0.1	0
bin	0.12	0
bin	0.14	0
bin	0.16	0
bin	0.18	0
bin	0.2	0
bin	0.22	0
bin	0.24	0
bin	0.26	0
bin	0.28	0
bin	0.3	0
bin	0.32	0
bin	0.34	0
bin	0.36	0
bin	0.38	0
bin	0.4	0
bin	0.42	0
bin	0.44	0
bin	0.46	0
bin	0.48	0
bin	0.5	0
bin	0.52	0
bin	0.54	0
bin	0.56	0
bin	0.58	0
bin	0.6	0
bin	0.62	0
bin	0.64	0
bin	0.66	0
bin	0.68	0
bin	0.7	0
bin	0.72	0
bin	0.74	5
bin	0.76	0
bin	0.78	0
bin	0.8	0
bin	0.82	0
bin	0.84	0
bin	0.86	0
bin	0.88	0
bin	0.9	0
bin	0.92	0
bin	0.94	0
bin	0.96	0
bin	0.98	46
bin	1	10158
bin	1.02	0
statistic FinalTask.Client[7].wlan[0].radio bitErrorRate:histogram
field count 0
field mean -nan
field stddev -nan
field min -nan
field max -nan
field sum 0
field sqrsum 0
attr source bitErrorRate(packetSentToUpper)
attr title "Bit error rate, histogram"
bin	-inf	0
bin	0	0
bin	1	0
statistic FinalTask.Client[7].wlan[0].radio symbolErrorRate:histogram
field count 0
field mean -nan
field stddev -nan
field min -nan
field max -nan
field sum 0
field sqrsum 0
attr source symbolErrorRate(packetSentToUpper)
attr title "Symbol error rate, histogram"
bin	-inf	0
bin	0	0
bin	1	0
scalar FinalTask.Client[7].ipv4.ip packetDropAddressResolutionFailed:count 0
attr interpolationmode none
attr source packetDropReasonIsAddressResolutionFailed(packetDropped)
attr title "packet drop: address resolution failed, count"
scalar FinalTask.Client[7].ipv4.ip packetDropAddressResolutionFailed:sum(packetBytes) 0
attr interpolationmode none
attr source packetDropReasonIsAddressResolutionFailed(packetDropped)
attr title "packet drop: address resolution failed, sum(packetBytes)"
scalar FinalTask.Client[7].ipv4.ip packetDropHopLimitReached:count 0
attr interpolationmode none
attr source packetDropReasonIsHopLimitReached(packetDropped)
attr title "packet drop: hop limit reached, count"
scalar FinalTask.Client[7].ipv4.ip packetDropHopLimitReached:sum(packetBytes) 0
attr interpolationmode none
attr source packetDropReasonIsHopLimitReached(packetDropped)
attr title "packet drop: hop limit reached, sum(packetBytes)"
scalar FinalTask.Client[7].ipv4.ip packetDropForwardingDisabled:count 0
attr interpolationmode none
attr source packetDropReasonIsForwardingDisabled(packetDropped)
attr title "packet drop: forwarding disabled, count"
scalar FinalTask.Client[7].ipv4.ip packetDropForwardingDisabled:sum(packetBytes) 0
attr interpolationmode none
attr source packetDropReasonIsForwardingDisabled(packetDropped)
attr title "packet drop: forwarding disabled, sum(packetBytes)"
scalar FinalTask.Client[7].ipv4.ip packetDropNoInterfaceFound:count 0
attr interpolationmode none
attr source packetDropReasonIsNoInterfaceFound(packetDropped)
attr title "packet drop: no interface found, count"
scalar FinalTask.Client[7].ipv4.ip packetDropNoInterfaceFound:sum(packetBytes) 0
attr interpolationmode none
attr source packetDropReasonIsNoInterfaceFound(packetDropped)
attr title "packet drop: no interface found, sum(packetBytes)"
scalar FinalTask.Client[7].ipv4.ip packetDropNoRouteFound:count 0
attr interpolationmode none
attr source packetDropReasonIsNoRouteFound(packetDropped)
attr title "packet drop: no route found, count"
scalar FinalTask.Client[7].ipv4.ip packetDropNoRouteFound:sum(packetBytes) 0
attr interpolationmode none
attr source packetDropReasonIsNoRouteFound(packetDropped)
attr title "packet drop: no route found, sum(packetBytes)"
scalar FinalTask.Client[7].ipv4.ip packetDropUndefined:count 0
attr interpolationmode none
attr source packetDropReasonIsUndefined(packetDropped)
attr title "packet drop: undefined, count"
scalar FinalTask.Client[7].ipv4.ip packetDropUndefined:sum(packetBytes) 0
attr interpolationmode none
attr source packetDropReasonIsUndefined(packetDropped)
attr title "packet drop: undefined, sum(packetBytes)"
scalar FinalTask.Client[7].ipv4.arp arpResolutionFailed:count 0
attr title "ARP failed resolutions, count"
scalar FinalTask.Client[7].ipv4.arp arpResolutionCompleted:count 161
attr title "ARP completed resolutions, count"
scalar FinalTask.Client[7].ipv4.arp arpResolutionInitiated:count 1
attr title "ARP initiated resolutions, count"
scalar FinalTask.Client[7].ipv4.arp arpReplySent:count 16
attr source arpReplySent
attr title "ARP replies sent, count"
scalar FinalTask.Client[7].ipv4.arp arpReplySent:sum(packetBytes) 448
attr source arpReplySent
attr title "ARP replies sent, sum(packetBytes)"
scalar FinalTask.Client[7].ipv4.arp arpRequestSent:count 1
attr source arpRequestSent
attr title "ARP request sent, count"
scalar FinalTask.Client[7].ipv4.arp arpRequestSent:sum(packetBytes) 28
attr source arpRequestSent
attr title "ARP request sent, sum(packetBytes)"
scalar FinalTask.Client[7].udp packetReceived:count 0
attr interpolationmode none
attr source packetReceived
attr title "packets received, count"
scalar FinalTask.Client[7].udp packetReceived:sum(packetBytes) 0
attr interpolationmode none
attr source packetReceived
attr title "packets received, sum(packetBytes)"
scalar FinalTask.Client[7].udp packetSent:count 0
attr interpolationmode none
attr source packetSent
attr title "packets sent, count"
scalar FinalTask.Client[7].udp packetSent:sum(packetBytes) 0
attr interpolationmode none
attr source packetSent
attr title "packets sent, sum(packetBytes)"
scalar FinalTask.Client[7].udp passedUpPk:count 0
attr interpolationmode none
attr source packetSentToUpper
attr title "packets passed up, count"
scalar FinalTask.Client[7].udp droppedPkWrongPort:count 0
attr interpolationmode none
attr source packetDropReasonIsNoPortFound(packetDropped)
attr title "packets dropped (wrong port), count"
scalar FinalTask.Client[7].udp droppedPkBadChecksum:count 0
attr interpolationmode none
attr source packetDropReasonIsIncorrectlyReceived(packetDropped)
attr title "packets dropped (checksum error), count"
scalar FinalTask.Client[7].app[0] packetReceived:count 49780
attr interpolationmode none
attr source packetReceived
attr title "packets received, count"
scalar FinalTask.Client[7].app[0] packetReceived:sum(packetBytes) 97347085
attr interpolationmode none
attr source packetReceived
attr title "packets received, sum(packetBytes)"
statistic FinalTask.Client[7].app[0] endToEndDelay:histogram
field count 132648
field mean 3.9184192840219
field stddev 3.6395966047163
field min 0.060713899053
field max 30.766773089154
field sum 519770.48118694
field sqrsum 3793808.8427455
attr interpolationmode none
attr source dataAge(packetReceived)
attr title "end-to-end delay, histogram"
attr unit s
bin	-inf	0
bin	0	1868
bin	0.4	13527
bin	0.8	37624
bin	1.2	4991
bin	1.6	3490
bin	2	3205
bin	2.4	4139
bin	2.8	3737
bin	3.2	4396
bin	3.6	3897
bin	4	3649
bin	4.4	3547
bin	4.8	2861
bin	5.2	3531
bin	5.6	3028
bin	6	3017
bin	6.4	3099
bin	6.8	3388
bin	7.2	2589
bin	7.6	2991
bin	8	2577
bin	8.4	1646
bin	8.8	1636
bin	9.2	1734
bin	9.6	1542
bin	10	1345
bin	10.4	1852
bin	10.8	1263
bin	11.2	823
bin	11.6	1533
bin	12	951
bin	12.4	405
bin	12.8	481
bin	13.2	606
bin	13.6	342
bin	14	273
bin	14.4	214
bin	14.8	108
bin	15.2	166
bin	15.6	43
bin	16	84
bin	16.4	12
bin	16.8	14
bin	17.2	212
bin	17.6	16
bin	18	14
bin	18.4	12
bin	18.8	23
bin	19.2	39
bin	19.6	45
bin	20	0
bin	20.4	0
bin	20.8	0
bin	21.2	0
bin	21.6	0
bin	22	0
bin	22.4	0
bin	22.8	0
bin	23.2	0
bin	23.6	0
bin	24	0
bin	24.4	0
bin	24.8	0
bin	25.2	0
bin	25.6	0
bin	26	0
bin	26.4	0
bin	26.8	0
bin	27.2	0
bin	27.6	0
bin	28	0
bin	28.4	0
bin	28.8	0
bin	29.2	0
bin	29.6	0
bin	30	50
bin	30.4	13
bin	30.8	0
statistic FinalTask.Client[7].app[0] endToEndDelay:weightedHistogram
field count 132648
field mean 3.935156936115
field stddev 3.6420762839339
field min 0.060713899053
field max 30.766773089154
field weights 778776680
field weightedSum 3064608453.9866
field sqrSumWeights 10646813277888
field weightedSqrSum 22389788205.904
attr interpolationmode none
attr source dataAge(packetReceived)
attr title "end-to-end delay, weightedHistogram"
attr unit s
bin	-inf	0
bin	0	10909120
bin	0.4	78997680
bin	0.8	219729800
bin	1.2	29147440
bin	1.6	20381600
bin	2	18717200
bin	2.4	24172096
bin	2.8	21819624
bin	3.2	25678368
bin	3.6	24033600
bin	4	21308336
bin	4.4	20865576
bin	4.8	16713120
bin	5.2	20709080
bin	5.6	17685544
bin	6	17749920
bin	6.4	18223128
bin	6.8	19879008
bin	7.2	15194120
bin	7.6	17597792
bin	8	15190032
bin	8.4	9983928
bin	8.8	10190144
bin	9.2	10132376
bin	9.6	9487144
bin	10	7874968
bin	10.4	10869712
bin	10.8	7393608
bin	11.2	4846640
bin	11.6	9249072
bin	12	5539192
bin	12.4	2366712
bin	12.8	2810832
bin	13.2	3539024
bin	13.6	1996816
bin	14	1589232
bin	14.4	1245608
bin	14.8	630520
bin	15.2	965080
bin	15.6	248832
bin	16	489000
bin	16.4	70080
bin	16.8	81760
bin	17.2	1244760
bin	17.6	93440
bin	18	81760
bin	18.4	70080
bin	18.8	138040
bin	19.2	222744
bin	19.6	257944
bin	20	0
bin	20.4	0
bin	20.8	0
bin	21.2	0
bin	21.6	0
bin	22	0
bin	22.4	0
bin	22.8	0
bin	23.2	0
bin	23.6	0
bin	24	0
bin	24.4	0
bin	24.8	0
bin	25.2	0
bin	25.6	0
bin	26	0
bin	26.4	0
bin	26.8	0
bin	27.2	0
bin	27.6	0
bin	28	0
bin	28.4	0
bin	28.8	0
bin	29.2	0
bin	29.6	0
bin	30	292000
bin	30.4	73448
bin	30.8	0
scalar FinalTask.Client[7].app[0] packetSent:count 148
attr interpolationmode none
attr source packetSent
attr title "packets sent, count"
scalar FinalTask.Client[7].app[0] packetSent:sum(packetBytes) 37592
attr interpolationmode none
attr source packetSent
attr title "packets sent, sum(packetBytes)"
scalar FinalTask.Client[7].app[0] numActiveSessions:max 1
attr interpolationmode sample-hold
attr source sum(connect)
attr title "number of active sessions, max"
scalar FinalTask.Client[7].app[0] numActiveSessions:timeavg 0.030340327579574
attr interpolationmode sample-hold
attr source sum(connect)
attr title "number of active sessions, timeavg"
scalar FinalTask.Client[7].app[0] numSessions:last 148
attr source sum(connect+1)/2
attr title "total number of sessions, last"
scalar FinalTask.radioMedium.propagation "Arrival computation count" 106478150
scalar FinalTask.radioMedium "transmission count" 10647815
scalar FinalTask.radioMedium "signal send count" 106478150
scalar FinalTask.radioMedium "reception computation count" 106478150
scalar FinalTask.radioMedium "interference computation count" 329880071
scalar FinalTask.radioMedium "reception decision computation count" 106356325
scalar FinalTask.radioMedium "listening decision computation count" 117067790
scalar FinalTask.radioMedium "reception cache hit" 85.710301933535
attr unit %
scalar FinalTask.radioMedium "interference cache hit" 66.666666666667
attr unit %
scalar FinalTask.radioMedium "noise cache hit" 0
attr unit %
scalar FinalTask.radioMedium "snir cache hit" 50
attr unit %
scalar FinalTask.radioMedium "reception decision cache hit" 50
attr unit %
scalar FinalTask.radioMedium "reception result cache hit" 0
attr unit %

