version 2
run HTTP_Clients_8-9-20200818-18:00:45-7494
attr configname HTTP_Clients_8
attr datetime 20200818-18:00:45
attr experiment HTTP_Clients_8
attr inifile omnetpp.ini
attr iterationvars $time=2000
attr iterationvarsf time=2000-
attr measurement $time=2000
attr network FinalTask
attr processid 7494
attr repetition 9
attr replication #9
attr resultdir results
attr runnumber 9
attr seedset 9
itervar time 2000
param **.numClient 8
param **.FTPUploadStudent.numApps 1
param **.FTPUploadStudent.app[0].typename "\"TcpSessionApp\""
param **.FTPUploadStudent.app[0].active true
param **.FTPUploadStudent.app[0].connectAddress "\"FTPServer\""
param **.FTPUploadStudent.app[0].connectPort 21
param **.FTPUploadStudent.app[0].sendBytes "2000000000 B"
param **.Client[*].numApps 1
param **.Client[*].app[0].typename "\"TcpBasicClientApp\""
param **.Client[*].app[0].connectAddress "\"HTTPServer\""
param **.Client[*].app[0].connectPort 10021
param **.Client[*].app[0].replyLength "1B * int(truncnormal(658800,64400))"
param **.Client[*].app[0].requestLength 254B
param **.Client[*].app[0].idleInterval 3s
param **.Client[*].app[0].thinkTime 0s
param **.Client[*].app[0].startTime uniform(0s,1s)
param **.ppp[*].ppp.queue.typename "\"DropTailQueue\""
param **.LISPRouter.ppp[*].ppp.queue.packetCapacity 70
param **.LRouter.ppp[*].ppp.queue.packetCapacity 70
param **.DISPRouter.ppp[*].ppp.queue.packetCapacity 70
param **.DRouter.ppp[*].ppp.queue.packetCapacity 70
param **.opMode "\"g(mixed)\""
param **.channelNumber 0
param **.wlan[*].bitrate 54Mbps
param **.wlan[*].mac.dcf.rtsPolicy.rtsThreshold 3000B
param **.address "\"auto\""
param **.constraintAreaMinX 0m
param **.constraintAreaMinY 0m
param **.constraintAreaMinZ 0m
param **.constraintAreaMaxX 250m
param **.constraintAreaMaxY 30m
param **.constraintAreaMaxZ 0m
param **.AP.mobility.typename "\"StationaryMobility\""
param **.AP.mobility.initialX 125m
param **.AP.mobility.initialY 15m
param **.AP.mobility.initialZ 0m
param **.initFromDisplayString false
param **.tcp.typename "\"Tcp\""
param **.tcpAlgorithmClass "\"TcpNewReno\""
param **.tcp.mss 1460
param **.dataTransferMode "\"object\""
param **.tcp.advertisedWindow "1000 * this.mss"
param **.tcp.windowScalingSupport true
param **.FTPServer.numApps 1
param **.FTPServer.app[0].typename "\"TcpSinkApp\""
param **.FTPServer.app[0].localPort 21
param **.HTTPServer.numApps 1
param **.HTTPServer.app[0].typename "\"TcpGenericServerApp\""
param **.HTTPServer.app[0].localPort 10021
param **.Professor.numApps 1
param **.Student.numApps 1
param **.Professor.app[0].typename "\"VideoConfApp\""
param **.Professor.app[0].destPort 100
param **.Professor.app[0].localPort 100
param **.Professor.app[0].messageLength "1400B + 12B"
param **.Professor.app[0].sendInterval 0.04s
param **.Student.app[0].typename "\"VideoConfApp\""
param **.Student.app[0].destPort 100
param **.Student.app[0].localPort 100
param **.Student.app[0].messageLength "1400B + 12B"
param **.Student.app[0].sendInterval 0.04s
param **.Professor.app[0].destAddresses "\"Student\""
param **.Student.app[0].destAddresses "\"Professor\""

scalar FinalTask.AP.ethg$o[0].channel throughput:last 7689672.1242735
attr source sumPerDuration(packetBits(messageSent))
attr unit bps
scalar FinalTask.DRouter.pppg$o[0].channel throughput:last 7539196.7494083
attr source sumPerDuration(packetBits(messageSent))
attr unit bps
scalar FinalTask.DRouter.ethg$o[0].channel throughput:last 4551807.6135744
attr source sumPerDuration(packetBits(messageSent))
attr unit bps
scalar FinalTask.DISPRouter.pppg$o[0].channel throughput:last 4379933.9355517
attr source sumPerDuration(packetBits(messageSent))
attr unit bps
scalar FinalTask.DISPRouter.ethg$o[0].channel throughput:last 164310.25419736
attr source sumPerDuration(packetBits(messageSent))
attr unit bps
scalar FinalTask.DISPRouter.ethg$o[1].channel throughput:last 7525325.2471663
attr source sumPerDuration(packetBits(messageSent))
attr unit bps
scalar FinalTask.HTTPServer.ethg$o[0].channel throughput:last 3917640.43487
attr source sumPerDuration(packetBits(messageSent))
attr unit bps
scalar FinalTask.LISPRouter.pppg$o[0].channel throughput:last 7428147.4741002
attr source sumPerDuration(packetBits(messageSent))
attr unit bps
scalar FinalTask.LISPRouter.ethg$o[0].channel throughput:last 634296.91180452
attr source sumPerDuration(packetBits(messageSent))
attr unit bps
scalar FinalTask.LRouter.pppg$o[0].channel throughput:last 512054.19685273
attr source sumPerDuration(packetBits(messageSent))
attr unit bps
scalar FinalTask.LRouter.ethg$o[0].channel throughput:last 7228821.5443189
attr source sumPerDuration(packetBits(messageSent))
attr unit bps
scalar FinalTask.LRouter.ethg$o[1].channel throughput:last 293143.33081479
attr source sumPerDuration(packetBits(messageSent))
attr unit bps
scalar FinalTask.FTPServer.ethg$o[0].channel throughput:last 341100.92951488
attr source sumPerDuration(packetBits(messageSent))
attr unit bps
scalar FinalTask.Professor.ethg$o[0].channel throughput:last 293204.896
attr source sumPerDuration(packetBits(messageSent))
attr unit bps
scalar FinalTask.AP.relayUnit "number of received BPDUs from STP module" 0
scalar FinalTask.AP.relayUnit "number of received frames from network (including BPDUs)" 3686314
scalar FinalTask.AP.relayUnit "number of dropped frames (including BPDUs)" 0
scalar FinalTask.AP.relayUnit "number of delivered BPDUs to the STP module" 0
scalar FinalTask.AP.relayUnit "number of dispatched BPDU frames to the network" 0
scalar FinalTask.AP.relayUnit "number of dispatched non-BDPU frames to the network" 3686314
scalar FinalTask.AP.wlan[0].mac.dcf.channelAccess.pendingQueue packetPopped:count 1793835
attr interpolationmode none
attr title "packet popped, count"
scalar FinalTask.AP.wlan[0].mac.dcf.channelAccess.pendingQueue packetPopped:sum(packetBytes) 1030024699
attr interpolationmode none
attr title "packet popped, sum(packetBytes)"
statistic FinalTask.AP.wlan[0].mac.dcf.channelAccess.pendingQueue queueingTime:histogram
field count 1793835
field mean 0.021929810075954
field stddev 0.095463634087141
field min 0
field max 120.77150445154
field sum 39338.4608576
field sqrsum 17210.442113609
attr interpolationmode none
attr source queueingTime(packetPopped)
attr title "queueing times, histogram"
attr unit s
bin	-inf	0
bin	0	1793834
bin	2	0
bin	4	0
bin	6	0
bin	8	0
bin	10	0
bin	12	0
bin	14	0
bin	16	0
bin	18	0
bin	20	0
bin	22	0
bin	24	0
bin	26	0
bin	28	0
bin	30	0
bin	32	0
bin	34	0
bin	36	0
bin	38	0
bin	40	0
bin	42	0
bin	44	0
bin	46	0
bin	48	0
bin	50	0
bin	52	0
bin	54	0
bin	56	0
bin	58	0
bin	60	0
bin	62	0
bin	64	0
bin	66	0
bin	68	0
bin	70	0
bin	72	0
bin	74	0
bin	76	0
bin	78	0
bin	80	0
bin	82	0
bin	84	0
bin	86	0
bin	88	0
bin	90	0
bin	92	0
bin	94	0
bin	96	0
bin	98	0
bin	100	0
bin	102	0
bin	104	0
bin	106	0
bin	108	0
bin	110	0
bin	112	0
bin	114	0
bin	116	0
bin	118	0
bin	120	1
bin	122	0
scalar FinalTask.AP.wlan[0].mac.dcf.channelAccess.pendingQueue queueLength:max 101
attr interpolationmode sample-hold
attr source "count(packetPushed) - count(packetPopped) - count(packetRemoved) - count(packetDropped)"
attr title "queue length, max"
scalar FinalTask.AP.wlan[0].mac.dcf.channelAccess.pendingQueue queueLength:timeavg 19.604428886585
attr interpolationmode sample-hold
attr source "count(packetPushed) - count(packetPopped) - count(packetRemoved) - count(packetDropped)"
attr title "queue length, timeavg"
scalar FinalTask.AP.wlan[0].mac.dcf.channelAccess.pendingQueue packetPushed:count 1904977
attr interpolationmode none
attr title "packet pushed, count"
scalar FinalTask.AP.wlan[0].mac.dcf.channelAccess.pendingQueue packetPushed:sum(packetBytes) 1157763293
attr interpolationmode none
attr title "packet pushed, sum(packetBytes)"
scalar FinalTask.AP.wlan[0].mac.dcf.channelAccess.pendingQueue packetDropQueueOverflow:count 111141
attr interpolationmode none
attr source packetDropReasonIsQueueOverflow(packetDropped)
attr title "packet drops: queue overflow, count"
scalar FinalTask.AP.wlan[0].mac.dcf.channelAccess.pendingQueue packetDropQueueOverflow:sum(packetBytes) 127738512
attr interpolationmode none
attr source packetDropReasonIsQueueOverflow(packetDropped)
attr title "packet drops: queue overflow, sum(packetBytes)"
scalar FinalTask.AP.wlan[0].mac.dcf.channelAccess.pendingQueue packetRemoved:count 0
attr interpolationmode none
attr title "packets removed, count"
scalar FinalTask.AP.wlan[0].mac.dcf.channelAccess.pendingQueue packetRemoved:sum(packetBytes) 0
attr interpolationmode none
attr title "packets removed, sum(packetBytes)"
statistic FinalTask.AP.wlan[0].mac.dcf.channelAccess.inProgressFrames queueingTime:histogram
field count 2353199
field mean 0.00083379664835471
field stddev 0.00052368358413422
field min 3.8e-05
field max 0.006019999528
field sum 1962.0894391116
field sqrsum 2.281335198288
attr interpolationmode none
attr source queueingTime(packetDequeued)
attr title "queueing times, histogram"
bin	-inf	0
bin	0	264028
bin	0.00012	28611
bin	0.00024	219624
bin	0.00036	195982
bin	0.00048	177435
bin	0.0006	159001
bin	0.00072	167602
bin	0.00084	179703
bin	0.00096	191115
bin	0.00108	199820
bin	0.0012	170523
bin	0.00132	101951
bin	0.00144	89251
bin	0.00156	78914
bin	0.00168	40407
bin	0.0018	25292
bin	0.00192	22434
bin	0.00204	17103
bin	0.00216	5649
bin	0.00228	5030
bin	0.0024	4551
bin	0.00252	2826
bin	0.00264	1522
bin	0.00276	1291
bin	0.00288	1018
bin	0.003	664
bin	0.00312	475
bin	0.00324	328
bin	0.00336	248
bin	0.00348	172
bin	0.0036	137
bin	0.00372	113
bin	0.00384	98
bin	0.00396	73
bin	0.00408	53
bin	0.0042	40
bin	0.00432	24
bin	0.00444	18
bin	0.00456	19
bin	0.00468	10
bin	0.0048	9
bin	0.00492	9
bin	0.00504	4
bin	0.00516	4
bin	0.00528	4
bin	0.0054	3
bin	0.00552	2
bin	0.00564	4
bin	0.00576	1
bin	0.00588	2
bin	0.006	2
bin	0.00612	0
scalar FinalTask.AP.wlan[0].mac.dcf.channelAccess.inProgressFrames queueLength:max 3
attr interpolationmode sample-hold
attr source "count(packetEnqueued) - count(packetDequeued)"
attr title "queue length, max"
scalar FinalTask.AP.wlan[0].mac.dcf.channelAccess.inProgressFrames queueLength:timeavg 0.98109085653948
attr interpolationmode sample-hold
attr source "count(packetEnqueued) - count(packetDequeued)"
attr title "queue length, timeavg"
scalar FinalTask.AP.wlan[0].mac.dcf.channelAccess.contention channelAccessGranted:count 1801411
attr title "channel access granted, count"
scalar FinalTask.AP.wlan[0].mac.dcf.channelAccess.contention stateChanged:count 28840640
attr interpolationmode none
attr title "contention state changed, count"
scalar FinalTask.AP.wlan[0].mac.dcf.channelAccess channelOwnershipChanged:count 3602822
attr interpolationmode sample-hold
attr title "channel ownership, count"
scalar FinalTask.AP.wlan[0].mac.dcf.originatorMacDataService packetAggregated:count 0
attr title "packets aggregated, count"
scalar FinalTask.AP.wlan[0].mac.dcf.originatorMacDataService packetFragmented:count 559364
attr title "packets fragmented, count"
scalar FinalTask.AP.wlan[0].mac.dcf.recipientMacDataService packetDeaggregated:count 0
attr title "packets deaggregated, count"
scalar FinalTask.AP.wlan[0].mac.dcf.recipientMacDataService packetDefragmented:count 1801428
attr title "packets defragmented, count"
scalar FinalTask.AP.wlan[0].mac.dcf.recipientMacDataService packetDropDuplicateDetected:count 0
attr interpolationmode none
attr source packetDropReasonIsDuplicateDetected(packetDropped)
attr title "packet drops: duplicate detected, count"
scalar FinalTask.AP.wlan[0].mac.dcf.recipientMacDataService packetDropDuplicateDetected:sum(packetBytes) 0
attr interpolationmode none
attr source packetDropReasonIsDuplicateDetected(packetDropped)
attr title "packet drops: duplicate detected, sum(packetBytes)"
scalar FinalTask.AP.wlan[0].mac.dcf.recoveryProcedure retryLimitReached:count 0
attr title "retry limit reached, count"
scalar FinalTask.AP.wlan[0].mac.dcf frameSequenceFinished:count 1801411
attr title "finished frame sequences, count"
statistic FinalTask.AP.wlan[0].mac.dcf frameSequenceDuration:histogram
field count 1801411
field mean 0.00018563433487431
field stddev 0.00013945214530451
field min 3.8e-05
field max 0.000387549928
field sum 334.40373282026
field sqrsum 0.0971086561458
attr source frameSequenceDuration(frameSequenceFinished)
attr title "frame sequence durations, histogram"
bin	-inf	0
bin	0	0
bin	1e-05	0
bin	2e-05	0
bin	3e-05	11
bin	4e-05	20161
bin	5e-05	0
bin	6e-05	0
bin	7e-05	0
bin	8e-05	1162865
bin	9e-05	4512
bin	0.0001	62
bin	0.00011	96
bin	0.00012	54
bin	0.00013	82
bin	0.00014	66
bin	0.00015	69
bin	0.00016	30
bin	0.00017	78
bin	0.00018	66
bin	0.00019	687
bin	0.0002	69
bin	0.00021	88
bin	0.00022	63
bin	0.00023	91
bin	0.00024	61
bin	0.00025	85
bin	0.00026	50
bin	0.00027	104
bin	0.00028	60
bin	0.00029	49383
bin	0.0003	3130
bin	0.00031	0
bin	0.00032	0
bin	0.00033	19
bin	0.00034	5
bin	0.00035	0
bin	0.00036	0
bin	0.00037	0
bin	0.00038	559364
bin	0.00039	0
bin	0.0004	0
bin	0.00041	0
bin	0.00042	0
bin	0.00043	0
bin	0.00044	0
bin	0.00045	0
bin	0.00046	0
bin	0.00047	0
bin	0.00048	0
statistic FinalTask.AP.wlan[0].mac.dcf frameSequenceNumPackets:histogram
field count 1801411
field mean 2.6098308492621
field stddev 0.93880892058651
field min 1
field max 4
field sum 4701378
field sqrsum 13857496
attr source frameSequenceNumPackets(frameSequenceFinished)
attr title "frame sequences: number of packets, histogram"
bin	-inf	0
bin	0	0
bin	1	20172
bin	2	1221875
bin	3	0
bin	4	559364
bin	5	0
scalar FinalTask.AP.wlan[0].mac.dcf packetReceivedFromPeer:count 5319180
attr interpolationmode none
attr title "packets received, count"
scalar FinalTask.AP.wlan[0].mac.dcf packetReceivedFromPeer:sum(packetBytes) 2002880860
attr interpolationmode none
attr title "packets received, sum(packetBytes)"
scalar FinalTask.AP.wlan[0].mac.dcf packetReceivedFromPeerUnicast:count 5319170
attr interpolationmode none
attr source ieee80211Unicast(packetReceivedFromPeer)
attr title "packets received: unicast, count"
scalar FinalTask.AP.wlan[0].mac.dcf packetReceivedFromPeerUnicast:sum(packetBytes) 2002880540
attr interpolationmode none
attr source ieee80211Unicast(packetReceivedFromPeer)
attr title "packets received: unicast, sum(packetBytes)"
scalar FinalTask.AP.wlan[0].mac.dcf packetReceivedFromPeerMulticast:count 10
attr interpolationmode none
attr source ieee80211Multicast(packetReceivedFromPeer)
attr title "packets received: multicast, count"
scalar FinalTask.AP.wlan[0].mac.dcf packetReceivedFromPeerMulticast:sum(packetBytes) 320
attr interpolationmode none
attr source ieee80211Multicast(packetReceivedFromPeer)
attr title "packets received: multicast, sum(packetBytes)"
scalar FinalTask.AP.wlan[0].mac.dcf packetReceivedFromPeerBroadcast:count 10
attr interpolationmode none
attr source ieee80211Broadcast(packetReceivedFromPeer)
attr title "packets received: broadcast, count"
scalar FinalTask.AP.wlan[0].mac.dcf packetReceivedFromPeerBroadcast:sum(packetBytes) 320
attr interpolationmode none
attr source ieee80211Broadcast(packetReceivedFromPeer)
attr title "packets received: broadcast, sum(packetBytes)"
scalar FinalTask.AP.wlan[0].mac.dcf packetReceivedFromPeerWithRetry:count 14049
attr interpolationmode none
attr source ieee80211Retry(packetReceivedFromPeer)
attr title "packets received: with retry, count"
scalar FinalTask.AP.wlan[0].mac.dcf packetReceivedFromPeerWithRetry:sum(packetBytes) 11664566
attr interpolationmode none
attr source ieee80211Retry(packetReceivedFromPeer)
attr title "packets received: with retry, sum(packetBytes)"
scalar FinalTask.AP.wlan[0].mac.dcf packetReceivedFromPeerWithoutRetry:count 5305131
attr interpolationmode none
attr source ieee80211NotRetry(packetReceivedFromPeer)
attr title "packets received: without retry, count"
scalar FinalTask.AP.wlan[0].mac.dcf packetReceivedFromPeerWithoutRetry:sum(packetBytes) 1991216294
attr interpolationmode none
attr source ieee80211NotRetry(packetReceivedFromPeer)
attr title "packets received: without retry, sum(packetBytes)"
scalar FinalTask.AP.wlan[0].mac.dcf packetSentToPeer:count 5346918
attr interpolationmode none
attr title "packets sent, count"
scalar FinalTask.AP.wlan[0].mac.dcf packetSentToPeer:sum(packetBytes) 1092585215
attr interpolationmode none
attr title "packets sent, sum(packetBytes)"
scalar FinalTask.AP.wlan[0].mac.dcf packetSentToPeerUnicast:count 5326746
attr interpolationmode none
attr source ieee80211Unicast(packetSentToPeer)
attr title "packets sent: unicast, count"
scalar FinalTask.AP.wlan[0].mac.dcf packetSentToPeerUnicast:sum(packetBytes) 1091611309
attr interpolationmode none
attr source ieee80211Unicast(packetSentToPeer)
attr title "packets sent: unicast, sum(packetBytes)"
scalar FinalTask.AP.wlan[0].mac.dcf packetSentToPeerMulticast:count 20172
attr interpolationmode none
attr source ieee80211Multicast(packetSentToPeer)
attr title "packets sent: multicast, count"
scalar FinalTask.AP.wlan[0].mac.dcf packetSentToPeerMulticast:sum(packetBytes) 973906
attr interpolationmode none
attr source ieee80211Multicast(packetSentToPeer)
attr title "packets sent: multicast, sum(packetBytes)"
scalar FinalTask.AP.wlan[0].mac.dcf packetSentToPeerBroadcast:count 20172
attr interpolationmode none
attr source ieee80211Broadcast(packetSentToPeer)
attr title "packets sent: broadcast , count"
scalar FinalTask.AP.wlan[0].mac.dcf packetSentToPeerBroadcast:sum(packetBytes) 973906
attr interpolationmode none
attr source ieee80211Broadcast(packetSentToPeer)
attr title "packets sent: broadcast , sum(packetBytes)"
scalar FinalTask.AP.wlan[0].mac.dcf packetSentToPeerWithRetry:count 7576
attr interpolationmode none
attr source ieee80211Retry(packetSentToPeer)
attr title "packets sent: with retry, count"
scalar FinalTask.AP.wlan[0].mac.dcf packetSentToPeerWithRetry:sum(packetBytes) 5092322
attr interpolationmode none
attr source ieee80211Retry(packetSentToPeer)
attr title "packets sent: with retry, sum(packetBytes)"
scalar FinalTask.AP.wlan[0].mac.dcf packetSentToPeerWithoutRetry:count 5339342
attr interpolationmode none
attr source ieee80211NotRetry(packetSentToPeer)
attr title "packets sent: without retry, count"
scalar FinalTask.AP.wlan[0].mac.dcf packetSentToPeerWithoutRetry:sum(packetBytes) 1087492893
attr interpolationmode none
attr source ieee80211NotRetry(packetSentToPeer)
attr title "packets sent: without retry, sum(packetBytes)"
scalar FinalTask.AP.wlan[0].mac.dcf packetDrop:count 111141
attr interpolationmode none
attr source packetDropped
attr title "packet drops, count"
scalar FinalTask.AP.wlan[0].mac.dcf packetDrop:sum(packetBytes) 127738512
attr interpolationmode none
attr source packetDropped
attr title "packet drops, sum(packetBytes)"
scalar FinalTask.AP.wlan[0].mac.dcf packetDropNotAddressedToUs:count 0
attr interpolationmode none
attr source packetDropReasonIsNotAddressedToUs(packetDropped)
attr title "packet drops: not addressed to us, count"
scalar FinalTask.AP.wlan[0].mac.dcf packetDropNotAddressedToUs:sum(packetBytes) 0
attr interpolationmode none
attr source packetDropReasonIsNotAddressedToUs(packetDropped)
attr title "packet drops: not addressed to us, sum(packetBytes)"
scalar FinalTask.AP.wlan[0].mac.dcf packetDropQueueOverflow:count 111141
attr interpolationmode none
attr source packetDropReasonIsQueueOverflow(packetDropped)
attr title "packet drops: queue overflow, count"
scalar FinalTask.AP.wlan[0].mac.dcf packetDropQueueOverflow:sum(packetBytes) 127738512
attr interpolationmode none
attr source packetDropReasonIsQueueOverflow(packetDropped)
attr title "packet drops: queue overflow, sum(packetBytes)"
scalar FinalTask.AP.wlan[0].mac.dcf packetDropRetryLimitReached:count 0
attr interpolationmode none
attr source packetDropReasonIsRetryLimitReached(packetDropped)
attr title "packet drops: retry limit reached, count"
scalar FinalTask.AP.wlan[0].mac.dcf packetDropRetryLimitReached:sum(packetBytes) 0
attr interpolationmode none
attr source packetDropReasonIsRetryLimitReached(packetDropped)
attr title "packet drops: retry limit reached, sum(packetBytes)"
scalar FinalTask.AP.wlan[0].mac.dcf linkBroken:count 0
attr interpolationmode none
attr title "link breaks, count"
scalar FinalTask.AP.wlan[0].mac packetReceivedFromLower:count 5322278
attr interpolationmode none
attr title "packets received from lower layer, count"
scalar FinalTask.AP.wlan[0].mac packetReceivedFromLower:sum(packetBytes) 2003156318
attr interpolationmode none
attr title "packets received from lower layer, sum(packetBytes)"
scalar FinalTask.AP.wlan[0].mac packetSentToLower:count 5346918
attr interpolationmode none
attr title "packets sent to lower layer, count"
scalar FinalTask.AP.wlan[0].mac packetSentToLower:sum(packetBytes) 1092585215
attr interpolationmode none
attr title "packets sent to lower layer, sum(packetBytes)"
scalar FinalTask.AP.wlan[0].mac packetReceivedFromUpper:count 1884926
attr interpolationmode none
attr title "packets received from upper layer, count"
scalar FinalTask.AP.wlan[0].mac packetReceivedFromUpper:sum(packetBytes) 1104023141
attr interpolationmode none
attr title "packets received from upper layer, sum(packetBytes)"
scalar FinalTask.AP.wlan[0].mac packetSentToUpper:count 1801388
attr interpolationmode none
attr title "packets sent to upper layer, count"
scalar FinalTask.AP.wlan[0].mac packetSentToUpper:sum(packetBytes) 1886605958
attr interpolationmode none
attr title "packets sent to upper layer, sum(packetBytes)"
scalar FinalTask.AP.wlan[0].mac packetDrop:count 114215
attr interpolationmode none
attr source packetDropped
attr title "packet drops, count"
scalar FinalTask.AP.wlan[0].mac packetDrop:sum(packetBytes) 128005026
attr interpolationmode none
attr source packetDropped
attr title "packet drops, sum(packetBytes)"
scalar FinalTask.AP.wlan[0].mac packetDropIncorrectlyReceived:count 3074
attr interpolationmode none
attr source packetDropReasonIsIncorrectlyReceived(packetDropped)
attr title "packet drops: incorrectly received, count"
scalar FinalTask.AP.wlan[0].mac packetDropIncorrectlyReceived:sum(packetBytes) 266514
attr interpolationmode none
attr source packetDropReasonIsIncorrectlyReceived(packetDropped)
attr title "packet drops: incorrectly received, sum(packetBytes)"
scalar FinalTask.AP.wlan[0].mac packetDropNotAddressedToUs:count 0
attr interpolationmode none
attr source packetDropReasonIsNotAddressedToUs(packetDropped)
attr title "packet drops: not addressed to us, count"
scalar FinalTask.AP.wlan[0].mac packetDropNotAddressedToUs:sum(packetBytes) 0
attr interpolationmode none
attr source packetDropReasonIsNotAddressedToUs(packetDropped)
attr title "packet drops: not addressed to us, sum(packetBytes)"
scalar FinalTask.AP.wlan[0].mac packetDropQueueOverflow:count 111141
attr interpolationmode none
attr source packetDropReasonIsQueueOverflow(packetDropped)
attr title "packet drops: queue overflow, count"
scalar FinalTask.AP.wlan[0].mac packetDropQueueOverflow:sum(packetBytes) 127738512
attr interpolationmode none
attr source packetDropReasonIsQueueOverflow(packetDropped)
attr title "packet drops: queue overflow, sum(packetBytes)"
scalar FinalTask.AP.wlan[0].mac packetDropRetryLimitReached:count 0
attr interpolationmode none
attr source packetDropReasonIsRetryLimitReached(packetDropped)
attr title "packet drops: retry limit reached, count"
scalar FinalTask.AP.wlan[0].mac packetDropRetryLimitReached:sum(packetBytes) 0
attr interpolationmode none
attr source packetDropReasonIsRetryLimitReached(packetDropped)
attr title "packet drops: retry limit reached, sum(packetBytes)"
scalar FinalTask.AP.wlan[0].mac packetDropDuplicateDetected:count 0
attr interpolationmode none
attr source packetDropReasonIsDuplicateDetected(packetDropped)
attr title "packet drops: duplicate detected, count"
scalar FinalTask.AP.wlan[0].mac packetDropDuplicateDetected:sum(packetBytes) 0
attr interpolationmode none
attr source packetDropReasonIsDuplicateDetected(packetDropped)
attr title "packet drops: duplicate detected, sum(packetBytes)"
scalar FinalTask.AP.wlan[0].mac packetDropOther:count 0
attr interpolationmode none
attr source packetDropReasonIsOther(packetDropped)
attr title "packet drops: other, count"
scalar FinalTask.AP.wlan[0].mac packetDropOther:sum(packetBytes) 0
attr interpolationmode none
attr source packetDropReasonIsOther(packetDropped)
attr title "packet drops: other, sum(packetBytes)"
scalar FinalTask.AP.wlan[0].mac linkBroken:count 0
attr interpolationmode none
attr title "link breaks, count"
statistic FinalTask.AP.wlan[0].radio radioChannel:histogram
field count 1
field mean 0
field stddev -nan
field min 0
field max 0
field sum 0
field sqrsum 0
attr interpolationmode sample-hold
attr source radioChannelChanged
attr title "Radio channel, histogram"
bin	-inf	0
bin	-0.5	0
bin	-0.48	0
bin	-0.46	0
bin	-0.44	0
bin	-0.42	0
bin	-0.4	0
bin	-0.38	0
bin	-0.36	0
bin	-0.34	0
bin	-0.32	0
bin	-0.3	0
bin	-0.28	0
bin	-0.26	0
bin	-0.24	0
bin	-0.22	0
bin	-0.2	0
bin	-0.18	0
bin	-0.16	0
bin	-0.14	0
bin	-0.12	0
bin	-0.1	0
bin	-0.08	0
bin	-0.06	0
bin	-0.04	0
bin	-0.02	0
bin	0	1
bin	0.02	0
bin	0.04	0
bin	0.06	0
bin	0.08	0
bin	0.1	0
bin	0.12	0
bin	0.14	0
bin	0.16	0
bin	0.18	0
bin	0.2	0
bin	0.22	0
bin	0.24	0
bin	0.26	0
bin	0.28	0
bin	0.3	0
bin	0.32	0
bin	0.34	0
bin	0.36	0
bin	0.38	0
bin	0.4	0
bin	0.42	0
bin	0.44	0
bin	0.46	0
bin	0.48	0
bin	0.5	0
scalar FinalTask.AP.wlan[0].radio radioMode:count 10693839
attr interpolationmode sample-hold
attr source radioModeChanged
attr title "Radio mode, count"
scalar FinalTask.AP.wlan[0].radio receptionState:count 21346030
attr interpolationmode sample-hold
attr source receptionStateChanged
attr title "Radio reception state, count"
scalar FinalTask.AP.wlan[0].radio transmissionState:count 21387672
attr interpolationmode sample-hold
attr source transmissionStateChanged
attr title "Radio transmission state, count"
statistic FinalTask.AP.wlan[0].radio minSnir:histogram
field count 5322278
field mean 57112974.754975
field stddev 415958361.72064
field min 4.245806824318e-05
field max 3088764049.4765
field sum 3.0397112905296e+14
field sqrsum 9.3822829325948e+23
attr source minimumSnir(packetSentToUpper)
attr title "Min SNIR, histogram"
bin	-inf	0
bin	0	5223936
bin	50000000	0
bin	100000000	0
bin	150000000	0
bin	200000000	0
bin	250000000	0
bin	300000000	0
bin	350000000	0
bin	400000000	0
bin	450000000	0
bin	500000000	0
bin	550000000	0
bin	600000000	0
bin	650000000	0
bin	700000000	0
bin	750000000	0
bin	800000000	0
bin	850000000	0
bin	900000000	0
bin	950000000	0
bin	1000000000	0
bin	1050000000	0
bin	1100000000	0
bin	1150000000	0
bin	1200000000	0
bin	1250000000	0
bin	1300000000	0
bin	1350000000	0
bin	1400000000	0
bin	1450000000	0
bin	1500000000	0
bin	1550000000	0
bin	1600000000	0
bin	1650000000	0
bin	1700000000	0
bin	1750000000	0
bin	1800000000	0
bin	1850000000	0
bin	1900000000	0
bin	1950000000	0
bin	2000000000	0
bin	2050000000	0
bin	2100000000	0
bin	2150000000	0
bin	2200000000	0
bin	2250000000	0
bin	2300000000	0
bin	2350000000	0
bin	2400000000	0
bin	2450000000	0
bin	2500000000	0
bin	2550000000	0
bin	2600000000	0
bin	2650000000	0
bin	2700000000	0
bin	2750000000	0
bin	2800000000	0
bin	2850000000	0
bin	2900000000	0
bin	2950000000	0
bin	3000000000	0
bin	3050000000	98342
bin	3100000000	0
bin	3150000000	0
bin	3200000000	0
bin	3250000000	0
bin	3300000000	0
bin	3350000000	0
bin	3400000000	0
bin	3450000000	0
bin	3500000000	0
bin	3550000000	0
bin	3600000000	0
bin	3650000000	0
bin	3700000000	0
bin	3750000000	0
bin	3800000000	0
bin	3850000000	0
bin	3900000000	0
statistic FinalTask.AP.wlan[0].radio packetErrorRate:histogram
field count 5322278
field mean 0.00057757223504672
field stddev 0.024025793510665
field min 0
field max 1
field sum 3074
field sqrsum 3074
attr source packetErrorRate(packetSentToUpper)
attr title "Packet error rate, histogram"
bin	-inf	0
bin	-0.5	0
bin	-0.48	0
bin	-0.46	0
bin	-0.44	0
bin	-0.42	0
bin	-0.4	0
bin	-0.38	0
bin	-0.36	0
bin	-0.34	0
bin	-0.32	0
bin	-0.3	0
bin	-0.28	0
bin	-0.26	0
bin	-0.24	0
bin	-0.22	0
bin	-0.2	0
bin	-0.18	0
bin	-0.16	0
bin	-0.14	0
bin	-0.12	0
bin	-0.1	0
bin	-0.08	0
bin	-0.06	0
bin	-0.04	0
bin	-0.02	0
bin	0	5319204
bin	0.02	0
bin	0.04	0
bin	0.06	0
bin	0.08	0
bin	0.1	0
bin	0.12	0
bin	0.14	0
bin	0.16	0
bin	0.18	0
bin	0.2	0
bin	0.22	0
bin	0.24	0
bin	0.26	0
bin	0.28	0
bin	0.3	0
bin	0.32	0
bin	0.34	0
bin	0.36	0
bin	0.38	0
bin	0.4	0
bin	0.42	0
bin	0.44	0
bin	0.46	0
bin	0.48	0
bin	0.5	0
bin	0.52	0
bin	0.54	0
bin	0.56	0
bin	0.58	0
bin	0.6	0
bin	0.62	0
bin	0.64	0
bin	0.66	0
bin	0.68	0
bin	0.7	0
bin	0.72	0
bin	0.74	0
bin	0.76	0
bin	0.78	0
bin	0.8	0
bin	0.82	0
bin	0.84	0
bin	0.86	0
bin	0.88	0
bin	0.9	0
bin	0.92	0
bin	0.94	0
bin	0.96	0
bin	0.98	0
bin	1	3074
bin	1.02	0
statistic FinalTask.AP.wlan[0].radio bitErrorRate:histogram
field count 0
field mean -nan
field stddev -nan
field min -nan
field max -nan
field sum 0
field sqrsum 0
attr source bitErrorRate(packetSentToUpper)
attr title "Bit error rate, histogram"
bin	-inf	0
bin	0	0
bin	1	0
statistic FinalTask.AP.wlan[0].radio symbolErrorRate:histogram
field count 0
field mean -nan
field stddev -nan
field min -nan
field max -nan
field sum 0
field sqrsum 0
attr source symbolErrorRate(packetSentToUpper)
attr title "Symbol error rate, histogram"
bin	-inf	0
bin	0	0
bin	1	0
scalar FinalTask.AP.eth[0].mac.queue packetPopped:count 1801388
attr interpolationmode none
attr title "packet popped, count"
scalar FinalTask.AP.eth[0].mac.queue packetPopped:sum(packetBytes) 1908006231
attr interpolationmode none
attr title "packet popped, sum(packetBytes)"
statistic FinalTask.AP.eth[0].mac.queue queueingTime:histogram
field count 1801388
field mean 0
field stddev 0
field min 0
field max 0
field sum 0
field sqrsum 0
attr interpolationmode none
attr source queueingTime(packetPopped)
attr title "queueing times, histogram"
attr unit s
bin	-inf	0
bin	-0.5	0
bin	-0.48	0
bin	-0.46	0
bin	-0.44	0
bin	-0.42	0
bin	-0.4	0
bin	-0.38	0
bin	-0.36	0
bin	-0.34	0
bin	-0.32	0
bin	-0.3	0
bin	-0.28	0
bin	-0.26	0
bin	-0.24	0
bin	-0.22	0
bin	-0.2	0
bin	-0.18	0
bin	-0.16	0
bin	-0.14	0
bin	-0.12	0
bin	-0.1	0
bin	-0.08	0
bin	-0.06	0
bin	-0.04	0
bin	-0.02	0
bin	0	1801388
bin	0.02	0
bin	0.04	0
bin	0.06	0
bin	0.08	0
bin	0.1	0
bin	0.12	0
bin	0.14	0
bin	0.16	0
bin	0.18	0
bin	0.2	0
bin	0.22	0
bin	0.24	0
bin	0.26	0
bin	0.28	0
bin	0.3	0
bin	0.32	0
bin	0.34	0
bin	0.36	0
bin	0.38	0
bin	0.4	0
bin	0.42	0
bin	0.44	0
bin	0.46	0
bin	0.48	0
bin	0.5	0
scalar FinalTask.AP.eth[0].mac.queue queueLength:max 1
attr interpolationmode sample-hold
attr source "count(packetPushed) - count(packetPopped) - count(packetRemoved) - count(packetDropped)"
attr title "queue length, max"
scalar FinalTask.AP.eth[0].mac.queue queueLength:timeavg 0
attr interpolationmode sample-hold
attr source "count(packetPushed) - count(packetPopped) - count(packetRemoved) - count(packetDropped)"
attr title "queue length, timeavg"
scalar FinalTask.AP.eth[0].mac.queue packetPushed:count 1801388
attr interpolationmode none
attr title "packet pushed, count"
scalar FinalTask.AP.eth[0].mac.queue packetPushed:sum(packetBytes) 1908006231
attr interpolationmode none
attr title "packet pushed, sum(packetBytes)"
scalar FinalTask.AP.eth[0].mac.queue packetDropQueueOverflow:count 0
attr interpolationmode none
attr source packetDropReasonIsQueueOverflow(packetDropped)
attr title "packet drops: queue overflow, count"
scalar FinalTask.AP.eth[0].mac.queue packetDropQueueOverflow:sum(packetBytes) 0
attr interpolationmode none
attr source packetDropReasonIsQueueOverflow(packetDropped)
attr title "packet drops: queue overflow, sum(packetBytes)"
scalar FinalTask.AP.eth[0].mac.queue packetRemoved:count 0
attr interpolationmode none
attr title "packets removed, count"
scalar FinalTask.AP.eth[0].mac.queue packetRemoved:sum(packetBytes) 0
attr interpolationmode none
attr title "packets removed, sum(packetBytes)"
scalar FinalTask.AP.eth[0].mac "simulated time" 2000
scalar FinalTask.AP.eth[0].mac full-duplex 1
scalar FinalTask.AP.eth[0].mac "frames/sec sent" 900.694
scalar FinalTask.AP.eth[0].mac "frames/sec rcvd" 942.463
scalar FinalTask.AP.eth[0].mac "bits/sec sent" 7632024.924
scalar FinalTask.AP.eth[0].mac "bits/sec rcvd" 4491489.604
scalar FinalTask.AP.eth[0].mac "rx channel idle (%)" 100
scalar FinalTask.AP.eth[0].mac "rx channel utilization (%)" 0
scalar FinalTask.AP.eth[0].mac rxPausePkUnits:count 0
attr interpolationmode none
attr title "pause units received, count"
scalar FinalTask.AP.eth[0].mac rxPausePkUnits:sum 0
attr interpolationmode none
attr title "pause units received, sum"
scalar FinalTask.AP.eth[0].mac txPausePkUnits:count 0
attr interpolationmode none
attr title "pause units sent, count"
scalar FinalTask.AP.eth[0].mac txPausePkUnits:sum 0
attr interpolationmode none
attr title "pause units sent, sum"
scalar FinalTask.AP.eth[0].mac rxPkOk:count 1884926
attr interpolationmode none
attr source rxPkOk
attr title "packets received OK, count"
scalar FinalTask.AP.eth[0].mac rxPkOk:sum(packetBytes) 1122872401
attr interpolationmode none
attr source rxPkOk
attr title "packets received OK, sum(packetBytes)"
scalar FinalTask.AP.eth[0].mac txPk:count 1801388
attr interpolationmode none
attr source packetSentToLower
attr title "packets transmitted, count"
scalar FinalTask.AP.eth[0].mac txPk:sum(packetBytes) 1908006231
attr interpolationmode none
attr source packetSentToLower
attr title "packets transmitted, sum(packetBytes)"
scalar FinalTask.AP.eth[0].mac packetReceivedFromUpper:count 1801388
attr interpolationmode none
attr source packetReceivedFromUpper
attr title "packet bytes from higher layer, count"
scalar FinalTask.AP.eth[0].mac packetReceivedFromUpper:sum(packetBytes) 1904619838
attr interpolationmode none
attr source packetReceivedFromUpper
attr title "packet bytes from higher layer, sum(packetBytes)"
scalar FinalTask.AP.eth[0].mac passedUpPk:count 1884926
attr interpolationmode none
attr source packetSentToUpper
attr title "packets passed to higher layer, count"
scalar FinalTask.AP.eth[0].mac passedUpPk:sum(packetBytes) 1122872401
attr interpolationmode none
attr source packetSentToUpper
attr title "packets passed to higher layer, sum(packetBytes)"
scalar FinalTask.AP.eth[0].mac packetDropIncorrectlyReceived:count 0
attr interpolationmode none
attr source packetDropReasonIsIncorrectlyReceived(packetDropped)
attr title "packet drop: incorrectly received, count"
scalar FinalTask.AP.eth[0].mac packetDropIncorrectlyReceived:sum(packetBytes) 0
attr interpolationmode none
attr source packetDropReasonIsIncorrectlyReceived(packetDropped)
attr title "packet drop: incorrectly received, sum(packetBytes)"
scalar FinalTask.AP.eth[0].mac packetDropInterfaceDown:count 0
attr interpolationmode none
attr source packetDropReasonIsInterfaceDown(packetDropped)
attr title "packet drop: interface down, count"
scalar FinalTask.AP.eth[0].mac packetDropInterfaceDown:sum(packetBytes) 0
attr interpolationmode none
attr source packetDropReasonIsInterfaceDown(packetDropped)
attr title "packet drop: interface down, sum(packetBytes)"
scalar FinalTask.AP.eth[0].mac packetDropNotAddressedToUs:count 0
attr interpolationmode none
attr source packetDropReasonIsNotAddressedToUs(packetDropped)
attr title "packet drop: not addressed to us, count"
scalar FinalTask.AP.eth[0].mac packetDropNotAddressedToUs:sum(packetBytes) 0
attr interpolationmode none
attr source packetDropReasonIsNotAddressedToUs(packetDropped)
attr title "packet drop: not addressed to us, sum(packetBytes)"
scalar FinalTask.DRouter.lo[0].lo rcvdPkFromHl:count 0
attr interpolationmode none
attr source packetReceivedFromUpper
attr title "packets received from higher layer, count"
scalar FinalTask.DRouter.lo[0].lo rcvdPkFromHl:sum(packetBytes) 0
attr interpolationmode none
attr source packetReceivedFromUpper
attr title "packets received from higher layer, sum(packetBytes)"
scalar FinalTask.DRouter.lo[0].lo passedUpPk:count 0
attr interpolationmode none
attr source packetSentToUpper
attr title "packets passed to higher layer, count"
scalar FinalTask.DRouter.lo[0].lo passedUpPk:sum(packetBytes) 0
attr interpolationmode none
attr source packetSentToUpper
attr title "packets passed to higher layer, sum(packetBytes)"
scalar FinalTask.DRouter.ppp[0].ppp.queue packetPopped:count 1801218
attr interpolationmode none
attr title "packet popped, count"
scalar FinalTask.DRouter.ppp[0].ppp.queue packetPopped:sum(packetBytes) 1872190094
attr interpolationmode none
attr title "packet popped, sum(packetBytes)"
statistic FinalTask.DRouter.ppp[0].ppp.queue queueingTime:histogram
field count 1801218
field mean 7.8302618208458e-06
field stddev 3.9402131779794e-05
field min 0
field max 0.000285578402
field sum 14.10400853642
field sqrsum 0.0029068778859521
attr interpolationmode none
attr source queueingTime(packetPopped)
attr title "queueing times, histogram"
attr unit s
bin	-inf	0
bin	0	1717202
bin	5e-06	2658
bin	1e-05	54
bin	1.5e-05	2
bin	2e-05	763
bin	2.5e-05	2894
bin	3e-05	50
bin	3.5e-05	4
bin	4e-05	834
bin	4.5e-05	3138
bin	5e-05	37
bin	5.5e-05	6
bin	6e-05	808
bin	6.5e-05	3323
bin	7e-05	49
bin	7.5e-05	4
bin	8e-05	798
bin	8.5e-05	3582
bin	9e-05	30
bin	9.5e-05	2
bin	0.0001	780
bin	0.000105	3954
bin	0.00011	12
bin	0.000115	0
bin	0.00012	822
bin	0.000125	4297
bin	0.00013	1
bin	0.000135	2
bin	0.00014	761
bin	0.000145	4590
bin	0.00015	1
bin	0.000155	0
bin	0.00016	701
bin	0.000165	5065
bin	0.00017	0
bin	0.000175	0
bin	0.00018	816
bin	0.000185	5810
bin	0.00019	2
bin	0.000195	1
bin	0.0002	905
bin	0.000205	6341
bin	0.00021	1
bin	0.000215	1
bin	0.00022	964
bin	0.000225	7239
bin	0.00023	1
bin	0.000235	1
bin	0.00024	1096
bin	0.000245	7945
bin	0.00025	0
bin	0.000255	1
bin	0.00026	1139
bin	0.000265	8203
bin	0.00027	1
bin	0.000275	0
bin	0.00028	443
bin	0.000285	3084
bin	0.00029	0
bin	0.000295	0
bin	0.0003	0
bin	0.000305	0
bin	0.00031	0
bin	0.000315	0
scalar FinalTask.DRouter.ppp[0].ppp.queue queueLength:max 2
attr interpolationmode sample-hold
attr source "count(packetPushed) - count(packetPopped) - count(packetRemoved) - count(packetDropped)"
attr title "queue length, max"
scalar FinalTask.DRouter.ppp[0].ppp.queue queueLength:timeavg 0.0070544826264064
attr interpolationmode sample-hold
attr source "count(packetPushed) - count(packetPopped) - count(packetRemoved) - count(packetDropped)"
attr title "queue length, timeavg"
scalar FinalTask.DRouter.ppp[0].ppp.queue packetPushed:count 1801218
attr interpolationmode none
attr title "packet pushed, count"
scalar FinalTask.DRouter.ppp[0].ppp.queue packetPushed:sum(packetBytes) 1872190094
attr interpolationmode none
attr title "packet pushed, sum(packetBytes)"
scalar FinalTask.DRouter.ppp[0].ppp.queue packetDropQueueOverflow:count 0
attr interpolationmode none
attr source packetDropReasonIsQueueOverflow(packetDropped)
attr title "packet drops: queue overflow, count"
scalar FinalTask.DRouter.ppp[0].ppp.queue packetDropQueueOverflow:sum(packetBytes) 0
attr interpolationmode none
attr source packetDropReasonIsQueueOverflow(packetDropped)
attr title "packet drops: queue overflow, sum(packetBytes)"
scalar FinalTask.DRouter.ppp[0].ppp.queue packetRemoved:count 0
attr interpolationmode none
attr title "packets removed, count"
scalar FinalTask.DRouter.ppp[0].ppp.queue packetRemoved:sum(packetBytes) 0
attr interpolationmode none
attr title "packets removed, sum(packetBytes)"
scalar FinalTask.DRouter.ppp[0].ppp transmissionState:timeavg 0.18847986200623
attr interpolationmode sample-hold
attr source transmissionStateChanged
attr title "tx state, timeavg"
scalar FinalTask.DRouter.ppp[0].ppp rxPkOk:count 1884749
attr interpolationmode none
attr source rxPkOk
attr title "packets received OK, count"
scalar FinalTask.DRouter.ppp[0].ppp rxPkOk:sum(packetBytes) 1094983391
attr interpolationmode none
attr source rxPkOk
attr title "packets received OK, sum(packetBytes)"
scalar FinalTask.DRouter.ppp[0].ppp txPk:count 1801218
attr interpolationmode none
attr source packetSentToLower
attr title "packets transmitted, count"
scalar FinalTask.DRouter.ppp[0].ppp txPk:sum(packetBytes) 1884798620
attr interpolationmode none
attr source packetSentToLower
attr title "packets transmitted, sum(packetBytes)"
scalar FinalTask.DRouter.ppp[0].ppp rcvdPkFromHl:count 1801218
attr interpolationmode none
attr source packetReceivedFromUpper
attr title "packets received from higher layer, count"
scalar FinalTask.DRouter.ppp[0].ppp rcvdPkFromHl:sum(packetBytes) 1872190094
attr interpolationmode none
attr source packetReceivedFromUpper
attr title "packets received from higher layer, sum(packetBytes)"
scalar FinalTask.DRouter.ppp[0].ppp passedUpPk:count 1884749
attr interpolationmode none
attr source packetSentToUpper
attr title "packets passed to higher layer, count"
scalar FinalTask.DRouter.ppp[0].ppp passedUpPk:sum(packetBytes) 1081790148
attr interpolationmode none
attr source packetSentToUpper
attr title "packets passed to higher layer, sum(packetBytes)"
scalar FinalTask.DRouter.ppp[0].ppp packetDropIncorrectlyReceived:count 0
attr interpolationmode none
attr source packetDropReasonIsIncorrectlyReceived(packetDropped)
attr title "packet drop: incorrectly received, count"
scalar FinalTask.DRouter.ppp[0].ppp packetDropIncorrectlyReceived:sum(packetBytes) 0
attr interpolationmode none
attr source packetDropReasonIsIncorrectlyReceived(packetDropped)
attr title "packet drop: incorrectly received, sum(packetBytes)"
scalar FinalTask.DRouter.ppp[0].ppp packetDropInterfaceDown:count 0
attr interpolationmode none
attr source packetDropReasonIsInterfaceDown(packetDropped)
attr title "packet drop: interface down, count"
scalar FinalTask.DRouter.ppp[0].ppp packetDropInterfaceDown:sum(packetBytes) 0
attr interpolationmode none
attr source packetDropReasonIsInterfaceDown(packetDropped)
attr title "packet drop: interface down, sum(packetBytes)"
scalar FinalTask.DRouter.eth[0].mac.queue packetPopped:count 1884926
attr interpolationmode none
attr title "packet popped, count"
scalar FinalTask.DRouter.eth[0].mac.queue packetPopped:sum(packetBytes) 1122872401
attr interpolationmode none
attr title "packet popped, sum(packetBytes)"
statistic FinalTask.DRouter.eth[0].mac.queue queueingTime:histogram
field count 1884926
field mean 4.8515704922813e-06
field stddev 2.5844775649636e-05
field min 0
field max 0.00283776
field sum 9.1448513617338
field sqrsum 0.0013034071220871
attr interpolationmode none
attr source queueingTime(packetPopped)
attr title "queueing times, histogram"
attr unit s
bin	-inf	0
bin	0	1813867
bin	5e-05	15501
bin	0.0001	49229
bin	0.00015	2533
bin	0.0002	2462
bin	0.00025	782
bin	0.0003	259
bin	0.00035	120
bin	0.0004	25
bin	0.00045	13
bin	0.0005	8
bin	0.00055	10
bin	0.0006	10
bin	0.00065	11
bin	0.0007	11
bin	0.00075	9
bin	0.0008	9
bin	0.00085	9
bin	0.0009	16
bin	0.00095	4
bin	0.001	2
bin	0.00105	2
bin	0.0011	2
bin	0.00115	2
bin	0.0012	2
bin	0.00125	0
bin	0.0013	2
bin	0.00135	1
bin	0.0014	1
bin	0.00145	1
bin	0.0015	1
bin	0.00155	1
bin	0.0016	0
bin	0.00165	1
bin	0.0017	1
bin	0.00175	1
bin	0.0018	1
bin	0.00185	1
bin	0.0019	0
bin	0.00195	1
bin	0.002	1
bin	0.00205	1
bin	0.0021	2
bin	0.00215	0
bin	0.0022	2
bin	0.00225	0
bin	0.0023	1
bin	0.00235	1
bin	0.0024	0
bin	0.00245	2
bin	0.0025	0
bin	0.00255	1
bin	0.0026	1
bin	0.00265	0
bin	0.0027	2
bin	0.00275	0
bin	0.0028	1
bin	0.00285	0
bin	0.0029	0
bin	0.00295	0
bin	0.003	0
bin	0.00305	0
bin	0.0031	0
bin	0.00315	0
bin	0.0032	0
bin	0.00325	0
bin	0.0033	0
bin	0.00335	0
bin	0.0034	0
bin	0.00345	0
bin	0.0035	0
bin	0.00355	0
scalar FinalTask.DRouter.eth[0].mac.queue queueLength:max 143
attr interpolationmode sample-hold
attr source "count(packetPushed) - count(packetPopped) - count(packetRemoved) - count(packetDropped)"
attr title "queue length, max"
scalar FinalTask.DRouter.eth[0].mac.queue queueLength:timeavg 0.0045729560283221
attr interpolationmode sample-hold
attr source "count(packetPushed) - count(packetPopped) - count(packetRemoved) - count(packetDropped)"
attr title "queue length, timeavg"
scalar FinalTask.DRouter.eth[0].mac.queue packetPushed:count 1884926
attr interpolationmode none
attr title "packet pushed, count"
scalar FinalTask.DRouter.eth[0].mac.queue packetPushed:sum(packetBytes) 1122872401
attr interpolationmode none
attr title "packet pushed, sum(packetBytes)"
scalar FinalTask.DRouter.eth[0].mac.queue packetDropQueueOverflow:count 0
attr interpolationmode none
attr source packetDropReasonIsQueueOverflow(packetDropped)
attr title "packet drops: queue overflow, count"
scalar FinalTask.DRouter.eth[0].mac.queue packetDropQueueOverflow:sum(packetBytes) 0
attr interpolationmode none
attr source packetDropReasonIsQueueOverflow(packetDropped)
attr title "packet drops: queue overflow, sum(packetBytes)"
scalar FinalTask.DRouter.eth[0].mac.queue packetRemoved:count 0
attr interpolationmode none
attr title "packets removed, count"
scalar FinalTask.DRouter.eth[0].mac.queue packetRemoved:sum(packetBytes) 0
attr interpolationmode none
attr title "packets removed, sum(packetBytes)"
scalar FinalTask.DRouter.eth[0].mac "simulated time" 2000
scalar FinalTask.DRouter.eth[0].mac full-duplex 1
scalar FinalTask.DRouter.eth[0].mac "frames/sec sent" 942.463
scalar FinalTask.DRouter.eth[0].mac "frames/sec rcvd" 900.694
scalar FinalTask.DRouter.eth[0].mac "bits/sec sent" 4491489.604
scalar FinalTask.DRouter.eth[0].mac "bits/sec rcvd" 7632024.924
scalar FinalTask.DRouter.eth[0].mac "rx channel idle (%)" 100
scalar FinalTask.DRouter.eth[0].mac "rx channel utilization (%)" 0
scalar FinalTask.DRouter.eth[0].mac rxPausePkUnits:count 0
attr interpolationmode none
attr title "pause units received, count"
scalar FinalTask.DRouter.eth[0].mac rxPausePkUnits:sum 0
attr interpolationmode none
attr title "pause units received, sum"
scalar FinalTask.DRouter.eth[0].mac txPausePkUnits:count 0
attr interpolationmode none
attr title "pause units sent, count"
scalar FinalTask.DRouter.eth[0].mac txPausePkUnits:sum 0
attr interpolationmode none
attr title "pause units sent, sum"
scalar FinalTask.DRouter.eth[0].mac rxPkOk:count 1801388
attr interpolationmode none
attr source rxPkOk
attr title "packets received OK, count"
scalar FinalTask.DRouter.eth[0].mac rxPkOk:sum(packetBytes) 1908006231
attr interpolationmode none
attr source rxPkOk
attr title "packets received OK, sum(packetBytes)"
scalar FinalTask.DRouter.eth[0].mac txPk:count 1884926
attr interpolationmode none
attr source packetSentToLower
attr title "packets transmitted, count"
scalar FinalTask.DRouter.eth[0].mac txPk:sum(packetBytes) 1122872401
attr interpolationmode none
attr source packetSentToLower
attr title "packets transmitted, sum(packetBytes)"
scalar FinalTask.DRouter.eth[0].mac packetReceivedFromUpper:count 1884926
attr interpolationmode none
attr source packetReceivedFromUpper
attr title "packet bytes from higher layer, count"
scalar FinalTask.DRouter.eth[0].mac packetReceivedFromUpper:sum(packetBytes) 1115723772
attr interpolationmode none
attr source packetReceivedFromUpper
attr title "packet bytes from higher layer, sum(packetBytes)"
scalar FinalTask.DRouter.eth[0].mac passedUpPk:count 1801388
attr interpolationmode none
attr source packetSentToUpper
attr title "packets passed to higher layer, count"
scalar FinalTask.DRouter.eth[0].mac passedUpPk:sum(packetBytes) 1908006231
attr interpolationmode none
attr source packetSentToUpper
attr title "packets passed to higher layer, sum(packetBytes)"
scalar FinalTask.DRouter.eth[0].mac packetDropIncorrectlyReceived:count 0
attr interpolationmode none
attr source packetDropReasonIsIncorrectlyReceived(packetDropped)
attr title "packet drop: incorrectly received, count"
scalar FinalTask.DRouter.eth[0].mac packetDropIncorrectlyReceived:sum(packetBytes) 0
attr interpolationmode none
attr source packetDropReasonIsIncorrectlyReceived(packetDropped)
attr title "packet drop: incorrectly received, sum(packetBytes)"
scalar FinalTask.DRouter.eth[0].mac packetDropInterfaceDown:count 0
attr interpolationmode none
attr source packetDropReasonIsInterfaceDown(packetDropped)
attr title "packet drop: interface down, count"
scalar FinalTask.DRouter.eth[0].mac packetDropInterfaceDown:sum(packetBytes) 0
attr interpolationmode none
attr source packetDropReasonIsInterfaceDown(packetDropped)
attr title "packet drop: interface down, sum(packetBytes)"
scalar FinalTask.DRouter.eth[0].mac packetDropNotAddressedToUs:count 0
attr interpolationmode none
attr source packetDropReasonIsNotAddressedToUs(packetDropped)
attr title "packet drop: not addressed to us, count"
scalar FinalTask.DRouter.eth[0].mac packetDropNotAddressedToUs:sum(packetBytes) 0
attr interpolationmode none
attr source packetDropReasonIsNotAddressedToUs(packetDropped)
attr title "packet drop: not addressed to us, sum(packetBytes)"
scalar FinalTask.DRouter.eth[0].encap pauseSent:count 0
attr title "pause sent, count"
scalar FinalTask.DRouter.eth[0].encap pauseSent:sum 0
attr title "pause sent, sum"
scalar FinalTask.DRouter.eth[0].encap decapPk:count 1801388
attr interpolationmode none
attr source decapPk
attr title "packets decapsulated, count"
scalar FinalTask.DRouter.eth[0].encap decapPk:sum(packetBytes) 1875581247
attr interpolationmode none
attr source decapPk
attr title "packets decapsulated, sum(packetBytes)"
scalar FinalTask.DRouter.eth[0].encap encapPk:count 1884926
attr interpolationmode none
attr source encapPk
attr title "packets encapsulated, count"
scalar FinalTask.DRouter.eth[0].encap encapPk:sum(packetBytes) 1081795104
attr interpolationmode none
attr source encapPk
attr title "packets encapsulated, sum(packetBytes)"
scalar FinalTask.DRouter.ipv4.ip packetDropAddressResolutionFailed:count 0
attr interpolationmode none
attr source packetDropReasonIsAddressResolutionFailed(packetDropped)
attr title "packet drop: address resolution failed, count"
scalar FinalTask.DRouter.ipv4.ip packetDropAddressResolutionFailed:sum(packetBytes) 0
attr interpolationmode none
attr source packetDropReasonIsAddressResolutionFailed(packetDropped)
attr title "packet drop: address resolution failed, sum(packetBytes)"
scalar FinalTask.DRouter.ipv4.ip packetDropHopLimitReached:count 0
attr interpolationmode none
attr source packetDropReasonIsHopLimitReached(packetDropped)
attr title "packet drop: hop limit reached, count"
scalar FinalTask.DRouter.ipv4.ip packetDropHopLimitReached:sum(packetBytes) 0
attr interpolationmode none
attr source packetDropReasonIsHopLimitReached(packetDropped)
attr title "packet drop: hop limit reached, sum(packetBytes)"
scalar FinalTask.DRouter.ipv4.ip packetDropForwardingDisabled:count 0
attr interpolationmode none
attr source packetDropReasonIsForwardingDisabled(packetDropped)
attr title "packet drop: forwarding disabled, count"
scalar FinalTask.DRouter.ipv4.ip packetDropForwardingDisabled:sum(packetBytes) 0
attr interpolationmode none
attr source packetDropReasonIsForwardingDisabled(packetDropped)
attr title "packet drop: forwarding disabled, sum(packetBytes)"
scalar FinalTask.DRouter.ipv4.ip packetDropNoInterfaceFound:count 0
attr interpolationmode none
attr source packetDropReasonIsNoInterfaceFound(packetDropped)
attr title "packet drop: no interface found, count"
scalar FinalTask.DRouter.ipv4.ip packetDropNoInterfaceFound:sum(packetBytes) 0
attr interpolationmode none
attr source packetDropReasonIsNoInterfaceFound(packetDropped)
attr title "packet drop: no interface found, sum(packetBytes)"
scalar FinalTask.DRouter.ipv4.ip packetDropNoRouteFound:count 0
attr interpolationmode none
attr source packetDropReasonIsNoRouteFound(packetDropped)
attr title "packet drop: no route found, count"
scalar FinalTask.DRouter.ipv4.ip packetDropNoRouteFound:sum(packetBytes) 0
attr interpolationmode none
attr source packetDropReasonIsNoRouteFound(packetDropped)
attr title "packet drop: no route found, sum(packetBytes)"
scalar FinalTask.DRouter.ipv4.ip packetDropUndefined:count 0
attr interpolationmode none
attr source packetDropReasonIsUndefined(packetDropped)
attr title "packet drop: undefined, count"
scalar FinalTask.DRouter.ipv4.ip packetDropUndefined:sum(packetBytes) 0
attr interpolationmode none
attr source packetDropReasonIsUndefined(packetDropped)
attr title "packet drop: undefined, sum(packetBytes)"
scalar FinalTask.DRouter.ipv4.arp arpResolutionFailed:count 0
attr title "ARP failed resolutions, count"
scalar FinalTask.DRouter.ipv4.arp arpResolutionCompleted:count 170
attr title "ARP completed resolutions, count"
scalar FinalTask.DRouter.ipv4.arp arpResolutionInitiated:count 160
attr title "ARP initiated resolutions, count"
scalar FinalTask.DRouter.ipv4.arp arpReplySent:count 11
attr source arpReplySent
attr title "ARP replies sent, count"
scalar FinalTask.DRouter.ipv4.arp arpReplySent:sum(packetBytes) 308
attr source arpReplySent
attr title "ARP replies sent, sum(packetBytes)"
scalar FinalTask.DRouter.ipv4.arp arpRequestSent:count 166
attr source arpRequestSent
attr title "ARP request sent, count"
scalar FinalTask.DRouter.ipv4.arp arpRequestSent:sum(packetBytes) 4648
attr source arpRequestSent
attr title "ARP request sent, sum(packetBytes)"
scalar FinalTask.DISPRouter.lo[0].lo rcvdPkFromHl:count 0
attr interpolationmode none
attr source packetReceivedFromUpper
attr title "packets received from higher layer, count"
scalar FinalTask.DISPRouter.lo[0].lo rcvdPkFromHl:sum(packetBytes) 0
attr interpolationmode none
attr source packetReceivedFromUpper
attr title "packets received from higher layer, sum(packetBytes)"
scalar FinalTask.DISPRouter.lo[0].lo passedUpPk:count 0
attr interpolationmode none
attr source packetSentToUpper
attr title "packets passed to higher layer, count"
scalar FinalTask.DISPRouter.lo[0].lo passedUpPk:sum(packetBytes) 0
attr interpolationmode none
attr source packetSentToUpper
attr title "packets passed to higher layer, sum(packetBytes)"
scalar FinalTask.DISPRouter.ppp[0].ppp.queue packetPopped:count 1884749
attr interpolationmode none
attr title "packet popped, count"
scalar FinalTask.DISPRouter.ppp[0].ppp.queue packetPopped:sum(packetBytes) 1081790148
attr interpolationmode none
attr title "packet popped, sum(packetBytes)"
statistic FinalTask.DISPRouter.ppp[0].ppp.queue queueingTime:histogram
field count 1884749
field mean 1.928996405362e-06
field stddev 1.2716846681093e-05
field min 0
field max 0.00029392
field sum 3.6356740460096
field sqrsum 0.00031181123640922
attr interpolationmode none
attr source queueingTime(packetPopped)
attr title "queueing times, histogram"
attr unit s
bin	-inf	0
bin	0	1830602
bin	4e-06	1675
bin	8e-06	1703
bin	1.2e-05	1677
bin	1.6e-05	1630
bin	2e-05	1669
bin	2.4e-05	1756
bin	2.8e-05	1715
bin	3.2e-05	1616
bin	3.6e-05	1620
bin	4e-05	1696
bin	4.4e-05	1770
bin	4.8e-05	1654
bin	5.2e-05	1977
bin	5.6e-05	1718
bin	6e-05	1768
bin	6.4e-05	1758
bin	6.8e-05	1722
bin	7.2e-05	1666
bin	7.6e-05	1798
bin	8e-05	1904
bin	8.4e-05	1886
bin	8.8e-05	1870
bin	9.2e-05	2499
bin	9.6e-05	1901
bin	0.0001	1894
bin	0.000104	1927
bin	0.000108	2051
bin	0.000112	3053
bin	0.000116	1477
bin	0.00012	251
bin	0.000124	44
bin	0.000128	33
bin	0.000132	46
bin	0.000136	45
bin	0.00014	30
bin	0.000144	38
bin	0.000148	31
bin	0.000152	30
bin	0.000156	44
bin	0.00016	32
bin	0.000164	37
bin	0.000168	40
bin	0.000172	36
bin	0.000176	37
bin	0.00018	35
bin	0.000184	31
bin	0.000188	34
bin	0.000192	30
bin	0.000196	31
bin	0.0002	36
bin	0.000204	26
bin	0.000208	22
bin	0.000212	25
bin	0.000216	10
bin	0.00022	16
bin	0.000224	5
bin	0.000228	4
bin	0.000232	1
bin	0.000236	0
bin	0.00024	0
bin	0.000244	2
bin	0.000248	1
bin	0.000252	2
bin	0.000256	1
bin	0.00026	1
bin	0.000264	2
bin	0.000268	1
bin	0.000272	1
bin	0.000276	1
bin	0.00028	1
bin	0.000284	1
bin	0.000288	2
bin	0.000292	1
bin	0.000296	0
scalar FinalTask.DISPRouter.ppp[0].ppp.queue queueLength:max 26
attr interpolationmode sample-hold
attr source "count(packetPushed) - count(packetPopped) - count(packetRemoved) - count(packetDropped)"
attr title "queue length, max"
scalar FinalTask.DISPRouter.ppp[0].ppp.queue queueLength:timeavg 0.0018180477654203
attr interpolationmode sample-hold
attr source "count(packetPushed) - count(packetPopped) - count(packetRemoved) - count(packetDropped)"
attr title "queue length, timeavg"
scalar FinalTask.DISPRouter.ppp[0].ppp.queue packetPushed:count 1884749
attr interpolationmode none
attr title "packet pushed, count"
scalar FinalTask.DISPRouter.ppp[0].ppp.queue packetPushed:sum(packetBytes) 1081790148
attr interpolationmode none
attr title "packet pushed, sum(packetBytes)"
scalar FinalTask.DISPRouter.ppp[0].ppp.queue packetDropQueueOverflow:count 0
attr interpolationmode none
attr source packetDropReasonIsQueueOverflow(packetDropped)
attr title "packet drops: queue overflow, count"
scalar FinalTask.DISPRouter.ppp[0].ppp.queue packetDropQueueOverflow:sum(packetBytes) 0
attr interpolationmode none
attr source packetDropReasonIsQueueOverflow(packetDropped)
attr title "packet drops: queue overflow, sum(packetBytes)"
scalar FinalTask.DISPRouter.ppp[0].ppp.queue packetRemoved:count 0
attr interpolationmode none
attr title "packets removed, count"
scalar FinalTask.DISPRouter.ppp[0].ppp.queue packetRemoved:sum(packetBytes) 0
attr interpolationmode none
attr title "packets removed, sum(packetBytes)"
scalar FinalTask.DISPRouter.ppp[0].ppp transmissionState:timeavg 0.043799335639014
attr interpolationmode sample-hold
attr source transmissionStateChanged
attr title "tx state, timeavg"
scalar FinalTask.DISPRouter.ppp[0].ppp rxPkOk:count 1801218
attr interpolationmode none
attr source rxPkOk
attr title "packets received OK, count"
scalar FinalTask.DISPRouter.ppp[0].ppp rxPkOk:sum(packetBytes) 1884798620
attr interpolationmode none
attr source rxPkOk
attr title "packets received OK, sum(packetBytes)"
scalar FinalTask.DISPRouter.ppp[0].ppp txPk:count 1884749
attr interpolationmode none
attr source packetSentToLower
attr title "packets transmitted, count"
scalar FinalTask.DISPRouter.ppp[0].ppp txPk:sum(packetBytes) 1094983391
attr interpolationmode none
attr source packetSentToLower
attr title "packets transmitted, sum(packetBytes)"
scalar FinalTask.DISPRouter.ppp[0].ppp rcvdPkFromHl:count 1884749
attr interpolationmode none
attr source packetReceivedFromUpper
attr title "packets received from higher layer, count"
scalar FinalTask.DISPRouter.ppp[0].ppp rcvdPkFromHl:sum(packetBytes) 1081790148
attr interpolationmode none
attr source packetReceivedFromUpper
attr title "packets received from higher layer, sum(packetBytes)"
scalar FinalTask.DISPRouter.ppp[0].ppp passedUpPk:count 1801218
attr interpolationmode none
attr source packetSentToUpper
attr title "packets passed to higher layer, count"
scalar FinalTask.DISPRouter.ppp[0].ppp passedUpPk:sum(packetBytes) 1872190094
attr interpolationmode none
attr source packetSentToUpper
attr title "packets passed to higher layer, sum(packetBytes)"
scalar FinalTask.DISPRouter.ppp[0].ppp packetDropIncorrectlyReceived:count 0
attr interpolationmode none
attr source packetDropReasonIsIncorrectlyReceived(packetDropped)
attr title "packet drop: incorrectly received, count"
scalar FinalTask.DISPRouter.ppp[0].ppp packetDropIncorrectlyReceived:sum(packetBytes) 0
attr interpolationmode none
attr source packetDropReasonIsIncorrectlyReceived(packetDropped)
attr title "packet drop: incorrectly received, sum(packetBytes)"
scalar FinalTask.DISPRouter.ppp[0].ppp packetDropInterfaceDown:count 0
attr interpolationmode none
attr source packetDropReasonIsInterfaceDown(packetDropped)
attr title "packet drop: interface down, count"
scalar FinalTask.DISPRouter.ppp[0].ppp packetDropInterfaceDown:sum(packetBytes) 0
attr interpolationmode none
attr source packetDropReasonIsInterfaceDown(packetDropped)
attr title "packet drop: interface down, sum(packetBytes)"
scalar FinalTask.DISPRouter.eth[0].mac.queue packetPopped:count 566336
attr interpolationmode none
attr title "packet popped, count"
scalar FinalTask.DISPRouter.eth[0].mac.queue packetPopped:sum(packetBytes) 36546546
attr interpolationmode none
attr title "packet popped, sum(packetBytes)"
statistic FinalTask.DISPRouter.eth[0].mac.queue queueingTime:histogram
field count 566336
field mean 1.4356749579402e-07
field stddev 7.6967887004602e-06
field min 0
field max 0.0006856
field sum 0.081307441298
field sqrsum 3.3561673557632e-05
attr interpolationmode none
attr source queueingTime(packetPopped)
attr title "queueing times, histogram"
attr unit s
bin	-inf	0
bin	0	566028
bin	9.6e-06	10
bin	1.92e-05	14
bin	2.88e-05	7
bin	3.84e-05	12
bin	4.8e-05	6
bin	5.76e-05	12
bin	6.72e-05	6
bin	7.68e-05	6
bin	8.64e-05	11
bin	9.6e-05	5
bin	0.0001056	10
bin	0.0001152	5
bin	0.0001248	7
bin	0.0001344	5
bin	0.000144	4
bin	0.0001536	8
bin	0.0001632	4
bin	0.0001728	8
bin	0.0001824	3
bin	0.000192	5
bin	0.0002016	4
bin	0.0002112	3
bin	0.0002208	6
bin	0.0002304	3
bin	0.00024	6
bin	0.0002496	3
bin	0.0002592	5
bin	0.0002688	4
bin	0.0002784	3
bin	0.000288	6
bin	0.0002976	3
bin	0.0003072	6
bin	0.0003168	2
bin	0.0003264	3
bin	0.000336	3
bin	0.0003456	2
bin	0.0003552	4
bin	0.0003648	2
bin	0.0003744	4
bin	0.000384	2
bin	0.0003936	3
bin	0.0004032	3
bin	0.0004128	2
bin	0.0004224	4
bin	0.000432	2
bin	0.0004416	4
bin	0.0004512	2
bin	0.0004608	3
bin	0.0004704	3
bin	0.00048	2
bin	0.0004896	4
bin	0.0004992	2
bin	0.0005088	4
bin	0.0005184	2
bin	0.000528	3
bin	0.0005376	3
bin	0.0005472	2
bin	0.0005568	4
bin	0.0005664	2
bin	0.000576	4
bin	0.0005856	2
bin	0.0005952	3
bin	0.0006048	3
bin	0.0006144	2
bin	0.000624	4
bin	0.0006336	2
bin	0.0006432	4
bin	0.0006528	2
bin	0.0006624	3
bin	0.000672	2
bin	0.0006816	1
bin	0.0006912	0
scalar FinalTask.DISPRouter.eth[0].mac.queue queueLength:max 102
attr interpolationmode sample-hold
attr source "count(packetPushed) - count(packetPopped) - count(packetRemoved) - count(packetDropped)"
attr title "queue length, max"
scalar FinalTask.DISPRouter.eth[0].mac.queue queueLength:timeavg 4.0668008226809e-05
attr interpolationmode sample-hold
attr source "count(packetPushed) - count(packetPopped) - count(packetRemoved) - count(packetDropped)"
attr title "queue length, timeavg"
scalar FinalTask.DISPRouter.eth[0].mac.queue packetPushed:count 566336
attr interpolationmode none
attr title "packet pushed, count"
scalar FinalTask.DISPRouter.eth[0].mac.queue packetPushed:sum(packetBytes) 36546546
attr interpolationmode none
attr title "packet pushed, sum(packetBytes)"
scalar FinalTask.DISPRouter.eth[0].mac.queue packetDropQueueOverflow:count 0
attr interpolationmode none
attr source packetDropReasonIsQueueOverflow(packetDropped)
attr title "packet drops: queue overflow, count"
scalar FinalTask.DISPRouter.eth[0].mac.queue packetDropQueueOverflow:sum(packetBytes) 0
attr interpolationmode none
attr source packetDropReasonIsQueueOverflow(packetDropped)
attr title "packet drops: queue overflow, sum(packetBytes)"
scalar FinalTask.DISPRouter.eth[0].mac.queue packetRemoved:count 0
attr interpolationmode none
attr title "packets removed, count"
scalar FinalTask.DISPRouter.eth[0].mac.queue packetRemoved:sum(packetBytes) 0
attr interpolationmode none
attr title "packets removed, sum(packetBytes)"
scalar FinalTask.DISPRouter.eth[0].mac "simulated time" 2000
scalar FinalTask.DISPRouter.eth[0].mac full-duplex 1
scalar FinalTask.DISPRouter.eth[0].mac "frames/sec sent" 283.168
scalar FinalTask.DISPRouter.eth[0].mac "frames/sec rcvd" 325.225
scalar FinalTask.DISPRouter.eth[0].mac "bits/sec sent" 146186.184
scalar FinalTask.DISPRouter.eth[0].mac "bits/sec rcvd" 3896674.892
scalar FinalTask.DISPRouter.eth[0].mac "rx channel idle (%)" 100
scalar FinalTask.DISPRouter.eth[0].mac "rx channel utilization (%)" 0
scalar FinalTask.DISPRouter.eth[0].mac rxPausePkUnits:count 0
attr interpolationmode none
attr title "pause units received, count"
scalar FinalTask.DISPRouter.eth[0].mac rxPausePkUnits:sum 0
attr interpolationmode none
attr title "pause units received, sum"
scalar FinalTask.DISPRouter.eth[0].mac txPausePkUnits:count 0
attr interpolationmode none
attr title "pause units sent, count"
scalar FinalTask.DISPRouter.eth[0].mac txPausePkUnits:sum 0
attr interpolationmode none
attr title "pause units sent, sum"
scalar FinalTask.DISPRouter.eth[0].mac rxPkOk:count 650450
attr interpolationmode none
attr source rxPkOk
attr title "packets received OK, count"
scalar FinalTask.DISPRouter.eth[0].mac rxPkOk:sum(packetBytes) 974168723
attr interpolationmode none
attr source rxPkOk
attr title "packets received OK, sum(packetBytes)"
scalar FinalTask.DISPRouter.eth[0].mac txPk:count 566336
attr interpolationmode none
attr source packetSentToLower
attr title "packets transmitted, count"
scalar FinalTask.DISPRouter.eth[0].mac txPk:sum(packetBytes) 36546546
attr interpolationmode none
attr source packetSentToLower
attr title "packets transmitted, sum(packetBytes)"
scalar FinalTask.DISPRouter.eth[0].mac packetReceivedFromUpper:count 566336
attr interpolationmode none
attr source packetReceivedFromUpper
attr title "packet bytes from higher layer, count"
scalar FinalTask.DISPRouter.eth[0].mac packetReceivedFromUpper:sum(packetBytes) 33162852
attr interpolationmode none
attr source packetReceivedFromUpper
attr title "packet bytes from higher layer, sum(packetBytes)"
scalar FinalTask.DISPRouter.eth[0].mac passedUpPk:count 650450
attr interpolationmode none
attr source packetSentToUpper
attr title "packets passed to higher layer, count"
scalar FinalTask.DISPRouter.eth[0].mac passedUpPk:sum(packetBytes) 974168723
attr interpolationmode none
attr source packetSentToUpper
attr title "packets passed to higher layer, sum(packetBytes)"
scalar FinalTask.DISPRouter.eth[0].mac packetDropIncorrectlyReceived:count 0
attr interpolationmode none
attr source packetDropReasonIsIncorrectlyReceived(packetDropped)
attr title "packet drop: incorrectly received, count"
scalar FinalTask.DISPRouter.eth[0].mac packetDropIncorrectlyReceived:sum(packetBytes) 0
attr interpolationmode none
attr source packetDropReasonIsIncorrectlyReceived(packetDropped)
attr title "packet drop: incorrectly received, sum(packetBytes)"
scalar FinalTask.DISPRouter.eth[0].mac packetDropInterfaceDown:count 0
attr interpolationmode none
attr source packetDropReasonIsInterfaceDown(packetDropped)
attr title "packet drop: interface down, count"
scalar FinalTask.DISPRouter.eth[0].mac packetDropInterfaceDown:sum(packetBytes) 0
attr interpolationmode none
attr source packetDropReasonIsInterfaceDown(packetDropped)
attr title "packet drop: interface down, sum(packetBytes)"
scalar FinalTask.DISPRouter.eth[0].mac packetDropNotAddressedToUs:count 0
attr interpolationmode none
attr source packetDropReasonIsNotAddressedToUs(packetDropped)
attr title "packet drop: not addressed to us, count"
scalar FinalTask.DISPRouter.eth[0].mac packetDropNotAddressedToUs:sum(packetBytes) 0
attr interpolationmode none
attr source packetDropReasonIsNotAddressedToUs(packetDropped)
attr title "packet drop: not addressed to us, sum(packetBytes)"
scalar FinalTask.DISPRouter.eth[0].encap pauseSent:count 0
attr title "pause sent, count"
scalar FinalTask.DISPRouter.eth[0].encap pauseSent:sum 0
attr title "pause sent, sum"
scalar FinalTask.DISPRouter.eth[0].encap decapPk:count 650450
attr interpolationmode none
attr source decapPk
attr title "packets decapsulated, count"
scalar FinalTask.DISPRouter.eth[0].encap decapPk:sum(packetBytes) 962460623
attr interpolationmode none
attr source decapPk
attr title "packets decapsulated, sum(packetBytes)"
scalar FinalTask.DISPRouter.eth[0].encap encapPk:count 566336
attr interpolationmode none
attr source encapPk
attr title "packets encapsulated, count"
scalar FinalTask.DISPRouter.eth[0].encap encapPk:sum(packetBytes) 22968804
attr interpolationmode none
attr source encapPk
attr title "packets encapsulated, sum(packetBytes)"
scalar FinalTask.DISPRouter.eth[1].mac.queue packetPopped:count 1234926
attr interpolationmode none
attr title "packet popped, count"
scalar FinalTask.DISPRouter.eth[1].mac.queue packetPopped:sum(packetBytes) 1871451621
attr interpolationmode none
attr title "packet popped, sum(packetBytes)"
statistic FinalTask.DISPRouter.eth[1].mac.queue queueingTime:histogram
field count 1234926
field mean 1.9386293710919e-06
field stddev 0.00010957993960615
field min 0
field max 0.0098288
field sum 2.394063814725
field sqrsum 0.014833328127839
attr interpolationmode none
attr source queueingTime(packetPopped)
attr title "queueing times, histogram"
attr unit s
bin	-inf	0
bin	-0.5	0
bin	-0.48	0
bin	-0.46	0
bin	-0.44	0
bin	-0.42	0
bin	-0.4	0
bin	-0.38	0
bin	-0.36	0
bin	-0.34	0
bin	-0.32	0
bin	-0.3	0
bin	-0.28	0
bin	-0.26	0
bin	-0.24	0
bin	-0.22	0
bin	-0.2	0
bin	-0.18	0
bin	-0.16	0
bin	-0.14	0
bin	-0.12	0
bin	-0.1	0
bin	-0.08	0
bin	-0.06	0
bin	-0.04	0
bin	-0.02	0
bin	0	1234926
bin	0.02	0
bin	0.04	0
bin	0.06	0
bin	0.08	0
bin	0.1	0
bin	0.12	0
bin	0.14	0
bin	0.16	0
bin	0.18	0
bin	0.2	0
bin	0.22	0
bin	0.24	0
bin	0.26	0
bin	0.28	0
bin	0.3	0
bin	0.32	0
bin	0.34	0
bin	0.36	0
bin	0.38	0
bin	0.4	0
bin	0.42	0
bin	0.44	0
bin	0.46	0
bin	0.48	0
bin	0.5	0
scalar FinalTask.DISPRouter.eth[1].mac.queue queueLength:max 80
attr interpolationmode sample-hold
attr source "count(packetPushed) - count(packetPopped) - count(packetRemoved) - count(packetDropped)"
attr title "queue length, max"
scalar FinalTask.DISPRouter.eth[1].mac.queue queueLength:timeavg 0.0011970987717394
attr interpolationmode sample-hold
attr source "count(packetPushed) - count(packetPopped) - count(packetRemoved) - count(packetDropped)"
attr title "queue length, timeavg"
scalar FinalTask.DISPRouter.eth[1].mac.queue packetPushed:count 1234926
attr interpolationmode none
attr title "packet pushed, count"
scalar FinalTask.DISPRouter.eth[1].mac.queue packetPushed:sum(packetBytes) 1871451621
attr interpolationmode none
attr title "packet pushed, sum(packetBytes)"
scalar FinalTask.DISPRouter.eth[1].mac.queue packetDropQueueOverflow:count 0
attr interpolationmode none
attr source packetDropReasonIsQueueOverflow(packetDropped)
attr title "packet drops: queue overflow, count"
scalar FinalTask.DISPRouter.eth[1].mac.queue packetDropQueueOverflow:sum(packetBytes) 0
attr interpolationmode none
attr source packetDropReasonIsQueueOverflow(packetDropped)
attr title "packet drops: queue overflow, sum(packetBytes)"
scalar FinalTask.DISPRouter.eth[1].mac.queue packetRemoved:count 0
attr interpolationmode none
attr title "packets removed, count"
scalar FinalTask.DISPRouter.eth[1].mac.queue packetRemoved:sum(packetBytes) 0
attr interpolationmode none
attr title "packets removed, sum(packetBytes)"
scalar FinalTask.DISPRouter.eth[1].mac "simulated time" 2000
scalar FinalTask.DISPRouter.eth[1].mac full-duplex 1
scalar FinalTask.DISPRouter.eth[1].mac "frames/sec sent" 617.463
scalar FinalTask.DISPRouter.eth[1].mac "frames/sec rcvd" 617.1715
scalar FinalTask.DISPRouter.eth[1].mac "bits/sec sent" 7485806.484
scalar FinalTask.DISPRouter.eth[1].mac "bits/sec rcvd" 594780.664
scalar FinalTask.DISPRouter.eth[1].mac "rx channel idle (%)" 100
scalar FinalTask.DISPRouter.eth[1].mac "rx channel utilization (%)" 0
scalar FinalTask.DISPRouter.eth[1].mac rxPausePkUnits:count 0
attr interpolationmode none
attr title "pause units received, count"
scalar FinalTask.DISPRouter.eth[1].mac rxPausePkUnits:sum 0
attr interpolationmode none
attr title "pause units received, sum"
scalar FinalTask.DISPRouter.eth[1].mac txPausePkUnits:count 0
attr interpolationmode none
attr title "pause units sent, count"
scalar FinalTask.DISPRouter.eth[1].mac txPausePkUnits:sum 0
attr interpolationmode none
attr title "pause units sent, sum"
scalar FinalTask.DISPRouter.eth[1].mac rxPkOk:count 1234343
attr interpolationmode none
attr source rxPkOk
attr title "packets received OK, count"
scalar FinalTask.DISPRouter.eth[1].mac rxPkOk:sum(packetBytes) 148695166
attr interpolationmode none
attr source rxPkOk
attr title "packets received OK, sum(packetBytes)"
scalar FinalTask.DISPRouter.eth[1].mac txPk:count 1234926
attr interpolationmode none
attr source packetSentToLower
attr title "packets transmitted, count"
scalar FinalTask.DISPRouter.eth[1].mac txPk:sum(packetBytes) 1871451621
attr interpolationmode none
attr source packetSentToLower
attr title "packets transmitted, sum(packetBytes)"
scalar FinalTask.DISPRouter.eth[1].mac packetReceivedFromUpper:count 1234926
attr interpolationmode none
attr source packetReceivedFromUpper
attr title "packet bytes from higher layer, count"
scalar FinalTask.DISPRouter.eth[1].mac packetReceivedFromUpper:sum(packetBytes) 1871451190
attr interpolationmode none
attr source packetReceivedFromUpper
attr title "packet bytes from higher layer, sum(packetBytes)"
scalar FinalTask.DISPRouter.eth[1].mac passedUpPk:count 1234343
attr interpolationmode none
attr source packetSentToUpper
attr title "packets passed to higher layer, count"
scalar FinalTask.DISPRouter.eth[1].mac passedUpPk:sum(packetBytes) 148695166
attr interpolationmode none
attr source packetSentToUpper
attr title "packets passed to higher layer, sum(packetBytes)"
scalar FinalTask.DISPRouter.eth[1].mac packetDropIncorrectlyReceived:count 0
attr interpolationmode none
attr source packetDropReasonIsIncorrectlyReceived(packetDropped)
attr title "packet drop: incorrectly received, count"
scalar FinalTask.DISPRouter.eth[1].mac packetDropIncorrectlyReceived:sum(packetBytes) 0
attr interpolationmode none
attr source packetDropReasonIsIncorrectlyReceived(packetDropped)
attr title "packet drop: incorrectly received, sum(packetBytes)"
scalar FinalTask.DISPRouter.eth[1].mac packetDropInterfaceDown:count 0
attr interpolationmode none
attr source packetDropReasonIsInterfaceDown(packetDropped)
attr title "packet drop: interface down, count"
scalar FinalTask.DISPRouter.eth[1].mac packetDropInterfaceDown:sum(packetBytes) 0
attr interpolationmode none
attr source packetDropReasonIsInterfaceDown(packetDropped)
attr title "packet drop: interface down, sum(packetBytes)"
scalar FinalTask.DISPRouter.eth[1].mac packetDropNotAddressedToUs:count 0
attr interpolationmode none
attr source packetDropReasonIsNotAddressedToUs(packetDropped)
attr title "packet drop: not addressed to us, count"
scalar FinalTask.DISPRouter.eth[1].mac packetDropNotAddressedToUs:sum(packetBytes) 0
attr interpolationmode none
attr source packetDropReasonIsNotAddressedToUs(packetDropped)
attr title "packet drop: not addressed to us, sum(packetBytes)"
scalar FinalTask.DISPRouter.eth[1].encap pauseSent:count 0
attr title "pause sent, count"
scalar FinalTask.DISPRouter.eth[1].encap pauseSent:sum 0
attr title "pause sent, sum"
scalar FinalTask.DISPRouter.eth[1].encap decapPk:count 1234343
attr interpolationmode none
attr source decapPk
attr title "packets decapsulated, count"
scalar FinalTask.DISPRouter.eth[1].encap decapPk:sum(packetBytes) 126476992
attr interpolationmode none
attr source decapPk
attr title "packets decapsulated, sum(packetBytes)"
scalar FinalTask.DISPRouter.eth[1].encap encapPk:count 1234926
attr interpolationmode none
attr source encapPk
attr title "packets encapsulated, count"
scalar FinalTask.DISPRouter.eth[1].encap encapPk:sum(packetBytes) 1849222522
attr interpolationmode none
attr source encapPk
attr title "packets encapsulated, sum(packetBytes)"
scalar FinalTask.DISPRouter.ipv4.ip packetDropAddressResolutionFailed:count 0
attr interpolationmode none
attr source packetDropReasonIsAddressResolutionFailed(packetDropped)
attr title "packet drop: address resolution failed, count"
scalar FinalTask.DISPRouter.ipv4.ip packetDropAddressResolutionFailed:sum(packetBytes) 0
attr interpolationmode none
attr source packetDropReasonIsAddressResolutionFailed(packetDropped)
attr title "packet drop: address resolution failed, sum(packetBytes)"
scalar FinalTask.DISPRouter.ipv4.ip packetDropHopLimitReached:count 0
attr interpolationmode none
attr source packetDropReasonIsHopLimitReached(packetDropped)
attr title "packet drop: hop limit reached, count"
scalar FinalTask.DISPRouter.ipv4.ip packetDropHopLimitReached:sum(packetBytes) 0
attr interpolationmode none
attr source packetDropReasonIsHopLimitReached(packetDropped)
attr title "packet drop: hop limit reached, sum(packetBytes)"
scalar FinalTask.DISPRouter.ipv4.ip packetDropForwardingDisabled:count 0
attr interpolationmode none
attr source packetDropReasonIsForwardingDisabled(packetDropped)
attr title "packet drop: forwarding disabled, count"
scalar FinalTask.DISPRouter.ipv4.ip packetDropForwardingDisabled:sum(packetBytes) 0
attr interpolationmode none
attr source packetDropReasonIsForwardingDisabled(packetDropped)
attr title "packet drop: forwarding disabled, sum(packetBytes)"
scalar FinalTask.DISPRouter.ipv4.ip packetDropNoInterfaceFound:count 0
attr interpolationmode none
attr source packetDropReasonIsNoInterfaceFound(packetDropped)
attr title "packet drop: no interface found, count"
scalar FinalTask.DISPRouter.ipv4.ip packetDropNoInterfaceFound:sum(packetBytes) 0
attr interpolationmode none
attr source packetDropReasonIsNoInterfaceFound(packetDropped)
attr title "packet drop: no interface found, sum(packetBytes)"
scalar FinalTask.DISPRouter.ipv4.ip packetDropNoRouteFound:count 0
attr interpolationmode none
attr source packetDropReasonIsNoRouteFound(packetDropped)
attr title "packet drop: no route found, count"
scalar FinalTask.DISPRouter.ipv4.ip packetDropNoRouteFound:sum(packetBytes) 0
attr interpolationmode none
attr source packetDropReasonIsNoRouteFound(packetDropped)
attr title "packet drop: no route found, sum(packetBytes)"
scalar FinalTask.DISPRouter.ipv4.ip packetDropUndefined:count 0
attr interpolationmode none
attr source packetDropReasonIsUndefined(packetDropped)
attr title "packet drop: undefined, count"
scalar FinalTask.DISPRouter.ipv4.ip packetDropUndefined:sum(packetBytes) 0
attr interpolationmode none
attr source packetDropReasonIsUndefined(packetDropped)
attr title "packet drop: undefined, sum(packetBytes)"
scalar FinalTask.DISPRouter.ipv4.arp arpResolutionFailed:count 0
attr title "ARP failed resolutions, count"
scalar FinalTask.DISPRouter.ipv4.arp arpResolutionCompleted:count 44
attr title "ARP completed resolutions, count"
scalar FinalTask.DISPRouter.ipv4.arp arpResolutionInitiated:count 22
attr title "ARP initiated resolutions, count"
scalar FinalTask.DISPRouter.ipv4.arp arpReplySent:count 22
attr source arpReplySent
attr title "ARP replies sent, count"
scalar FinalTask.DISPRouter.ipv4.arp arpReplySent:sum(packetBytes) 616
attr source arpReplySent
attr title "ARP replies sent, sum(packetBytes)"
scalar FinalTask.DISPRouter.ipv4.arp arpRequestSent:count 22
attr source arpRequestSent
attr title "ARP request sent, count"
scalar FinalTask.DISPRouter.ipv4.arp arpRequestSent:sum(packetBytes) 616
attr source arpRequestSent
attr title "ARP request sent, sum(packetBytes)"
scalar FinalTask.HTTPServer.lo[0].lo rcvdPkFromHl:count 0
attr interpolationmode none
attr source packetReceivedFromUpper
attr title "packets received from higher layer, count"
scalar FinalTask.HTTPServer.lo[0].lo rcvdPkFromHl:sum(packetBytes) 0
attr interpolationmode none
attr source packetReceivedFromUpper
attr title "packets received from higher layer, sum(packetBytes)"
scalar FinalTask.HTTPServer.lo[0].lo passedUpPk:count 0
attr interpolationmode none
attr source packetSentToUpper
attr title "packets passed to higher layer, count"
scalar FinalTask.HTTPServer.lo[0].lo passedUpPk:sum(packetBytes) 0
attr interpolationmode none
attr source packetSentToUpper
attr title "packets passed to higher layer, sum(packetBytes)"
scalar FinalTask.HTTPServer.eth[0].mac.queue packetPopped:count 650450
attr interpolationmode none
attr title "packet popped, count"
scalar FinalTask.HTTPServer.eth[0].mac.queue packetPopped:sum(packetBytes) 974168723
attr interpolationmode none
attr title "packet popped, sum(packetBytes)"
statistic FinalTask.HTTPServer.eth[0].mac.queue queueingTime:histogram
field count 650450
field mean 0.00044837295155646
field stddev 0.0025942672264073
field min 0
field max 0.049216
field sum 291.6441863399
field sqrsum 4.508431821817
attr interpolationmode none
attr source queueingTime(packetPopped)
attr title "queueing times, histogram"
attr unit s
bin	-inf	0
bin	0	626297
bin	0.00064	1269
bin	0.00128	1110
bin	0.00192	1067
bin	0.00256	1203
bin	0.0032	969
bin	0.00384	925
bin	0.00448	908
bin	0.00512	882
bin	0.00576	1011
bin	0.0064	824
bin	0.00704	815
bin	0.00768	766
bin	0.00832	736
bin	0.00896	846
bin	0.0096	677
bin	0.01024	630
bin	0.01088	588
[...]
attr title "packets sent: without retry, count"
scalar FinalTask.Client[7].wlan[0].mac.dcf packetSentToPeerWithoutRetry:sum(packetBytes) 7413184
attr interpolationmode none
attr source ieee80211NotRetry(packetSentToPeer)
attr title "packets sent: without retry, sum(packetBytes)"
scalar FinalTask.Client[7].wlan[0].mac.dcf packetDrop:count 10212843
attr interpolationmode none
attr source packetDropped
attr title "packet drops, count"
scalar FinalTask.Client[7].wlan[0].mac.dcf packetDrop:sum(packetBytes) 2969563845
attr interpolationmode none
attr source packetDropped
attr title "packet drops, sum(packetBytes)"
scalar FinalTask.Client[7].wlan[0].mac.dcf packetDropNotAddressedToUs:count 10212843
attr interpolationmode none
attr source packetDropReasonIsNotAddressedToUs(packetDropped)
attr title "packet drops: not addressed to us, count"
scalar FinalTask.Client[7].wlan[0].mac.dcf packetDropNotAddressedToUs:sum(packetBytes) 2969563845
attr interpolationmode none
attr source packetDropReasonIsNotAddressedToUs(packetDropped)
attr title "packet drops: not addressed to us, sum(packetBytes)"
scalar FinalTask.Client[7].wlan[0].mac.dcf packetDropQueueOverflow:count 0
attr interpolationmode none
attr source packetDropReasonIsQueueOverflow(packetDropped)
attr title "packet drops: queue overflow, count"
scalar FinalTask.Client[7].wlan[0].mac.dcf packetDropQueueOverflow:sum(packetBytes) 0
attr interpolationmode none
attr source packetDropReasonIsQueueOverflow(packetDropped)
attr title "packet drops: queue overflow, sum(packetBytes)"
scalar FinalTask.Client[7].wlan[0].mac.dcf packetDropRetryLimitReached:count 0
attr interpolationmode none
attr source packetDropReasonIsRetryLimitReached(packetDropped)
attr title "packet drops: retry limit reached, count"
scalar FinalTask.Client[7].wlan[0].mac.dcf packetDropRetryLimitReached:sum(packetBytes) 0
attr interpolationmode none
attr source packetDropReasonIsRetryLimitReached(packetDropped)
attr title "packet drops: retry limit reached, sum(packetBytes)"
scalar FinalTask.Client[7].wlan[0].mac.dcf linkBroken:count 0
attr interpolationmode none
attr title "link breaks, count"
scalar FinalTask.Client[7].wlan[0].mac packetReceivedFromLower:count 10455854
attr interpolationmode none
attr title "packets received from lower layer, count"
scalar FinalTask.Client[7].wlan[0].mac packetReceivedFromLower:sum(packetBytes) 3087487073
attr interpolationmode none
attr title "packets received from lower layer, sum(packetBytes)"
scalar FinalTask.Client[7].wlan[0].mac packetSentToLower:count 213342
attr interpolationmode none
attr title "packets sent to lower layer, count"
scalar FinalTask.Client[7].wlan[0].mac packetSentToLower:sum(packetBytes) 7476712
attr interpolationmode none
attr title "packets sent to lower layer, sum(packetBytes)"
scalar FinalTask.Client[7].wlan[0].mac packetReceivedFromUpper:count 70944
attr interpolationmode none
attr title "packets received from upper layer, count"
scalar FinalTask.Client[7].wlan[0].mac packetReceivedFromUpper:sum(packetBytes) 3444658
attr interpolationmode none
attr title "packets received from upper layer, sum(packetBytes)"
scalar FinalTask.Client[7].wlan[0].mac packetSentToUpper:count 71667
attr interpolationmode none
attr title "packets sent to upper layer, count"
scalar FinalTask.Client[7].wlan[0].mac packetSentToUpper:sum(packetBytes) 105929650
attr interpolationmode none
attr title "packets sent to upper layer, sum(packetBytes)"
scalar FinalTask.Client[7].wlan[0].mac packetDrop:count 10223221
attr interpolationmode none
attr source packetDropped
attr title "packet drops, count"
scalar FinalTask.Client[7].wlan[0].mac packetDrop:sum(packetBytes) 2975638107
attr interpolationmode none
attr source packetDropped
attr title "packet drops, sum(packetBytes)"
scalar FinalTask.Client[7].wlan[0].mac packetDropIncorrectlyReceived:count 10376
attr interpolationmode none
attr source packetDropReasonIsIncorrectlyReceived(packetDropped)
attr title "packet drops: incorrectly received, count"
scalar FinalTask.Client[7].wlan[0].mac packetDropIncorrectlyReceived:sum(packetBytes) 6074172
attr interpolationmode none
attr source packetDropReasonIsIncorrectlyReceived(packetDropped)
attr title "packet drops: incorrectly received, sum(packetBytes)"
scalar FinalTask.Client[7].wlan[0].mac packetDropNotAddressedToUs:count 10212843
attr interpolationmode none
attr source packetDropReasonIsNotAddressedToUs(packetDropped)
attr title "packet drops: not addressed to us, count"
scalar FinalTask.Client[7].wlan[0].mac packetDropNotAddressedToUs:sum(packetBytes) 2969563845
attr interpolationmode none
attr source packetDropReasonIsNotAddressedToUs(packetDropped)
attr title "packet drops: not addressed to us, sum(packetBytes)"
scalar FinalTask.Client[7].wlan[0].mac packetDropQueueOverflow:count 0
attr interpolationmode none
attr source packetDropReasonIsQueueOverflow(packetDropped)
attr title "packet drops: queue overflow, count"
scalar FinalTask.Client[7].wlan[0].mac packetDropQueueOverflow:sum(packetBytes) 0
attr interpolationmode none
attr source packetDropReasonIsQueueOverflow(packetDropped)
attr title "packet drops: queue overflow, sum(packetBytes)"
scalar FinalTask.Client[7].wlan[0].mac packetDropRetryLimitReached:count 0
attr interpolationmode none
attr source packetDropReasonIsRetryLimitReached(packetDropped)
attr title "packet drops: retry limit reached, count"
scalar FinalTask.Client[7].wlan[0].mac packetDropRetryLimitReached:sum(packetBytes) 0
attr interpolationmode none
attr source packetDropReasonIsRetryLimitReached(packetDropped)
attr title "packet drops: retry limit reached, sum(packetBytes)"
scalar FinalTask.Client[7].wlan[0].mac packetDropDuplicateDetected:count 0
attr interpolationmode none
attr source packetDropReasonIsDuplicateDetected(packetDropped)
attr title "packet drops: duplicate detected, count"
scalar FinalTask.Client[7].wlan[0].mac packetDropDuplicateDetected:sum(packetBytes) 0
attr interpolationmode none
attr source packetDropReasonIsDuplicateDetected(packetDropped)
attr title "packet drops: duplicate detected, sum(packetBytes)"
scalar FinalTask.Client[7].wlan[0].mac packetDropOther:count 2
attr interpolationmode none
attr source packetDropReasonIsOther(packetDropped)
attr title "packet drops: other, count"
scalar FinalTask.Client[7].wlan[0].mac packetDropOther:sum(packetBytes) 90
attr interpolationmode none
attr source packetDropReasonIsOther(packetDropped)
attr title "packet drops: other, sum(packetBytes)"
scalar FinalTask.Client[7].wlan[0].mac linkBroken:count 0
attr interpolationmode none
attr title "link breaks, count"
statistic FinalTask.Client[7].wlan[0].radio radioChannel:histogram
field count 4
field mean 0
field stddev 0
field min 0
field max 0
field sum 0
field sqrsum 0
attr interpolationmode sample-hold
attr source radioChannelChanged
attr title "Radio channel, histogram"
bin	-inf	0
bin	-0.5	0
bin	-0.48	0
bin	-0.46	0
bin	-0.44	0
bin	-0.42	0
bin	-0.4	0
bin	-0.38	0
bin	-0.36	0
bin	-0.34	0
bin	-0.32	0
bin	-0.3	0
bin	-0.28	0
bin	-0.26	0
bin	-0.24	0
bin	-0.22	0
bin	-0.2	0
bin	-0.18	0
bin	-0.16	0
bin	-0.14	0
bin	-0.12	0
bin	-0.1	0
bin	-0.08	0
bin	-0.06	0
bin	-0.04	0
bin	-0.02	0
bin	0	4
bin	0.02	0
bin	0.04	0
bin	0.06	0
bin	0.08	0
bin	0.1	0
bin	0.12	0
bin	0.14	0
bin	0.16	0
bin	0.18	0
bin	0.2	0
bin	0.22	0
bin	0.24	0
bin	0.26	0
bin	0.28	0
bin	0.3	0
bin	0.32	0
bin	0.34	0
bin	0.36	0
bin	0.38	0
bin	0.4	0
bin	0.42	0
bin	0.44	0
bin	0.46	0
bin	0.48	0
bin	0.5	0
scalar FinalTask.Client[7].wlan[0].radio radioMode:count 426687
attr interpolationmode sample-hold
attr source radioModeChanged
attr title "Radio mode, count"
scalar FinalTask.Client[7].wlan[0].radio receptionState:count 21347095
attr interpolationmode sample-hold
attr source receptionStateChanged
attr title "Radio reception state, count"
scalar FinalTask.Client[7].wlan[0].radio transmissionState:count 853368
attr interpolationmode sample-hold
attr source transmissionStateChanged
attr title "Radio transmission state, count"
statistic FinalTask.Client[7].wlan[0].radio minSnir:histogram
field count 10455854
field mean 61515.683296594
field stddev 47799.127622034
field min 0.091681111668147
field max 169805.06440927
field sum 643199003259.42
field sqrsum 6.3455905346497e+16
attr source minimumSnir(packetSentToUpper)
attr title "Min SNIR, histogram"
bin	-inf	0
bin	0	10378
bin	5000	3739008
bin	10000	211761
bin	15000	435522
bin	20000	0
bin	25000	212757
bin	30000	0
bin	35000	0
bin	40000	0
bin	45000	0
bin	50000	0
bin	55000	0
bin	60000	203656
bin	65000	0
bin	70000	0
bin	75000	0
bin	80000	0
bin	85000	0
bin	90000	0
bin	95000	0
bin	100000	5438148
bin	105000	0
bin	110000	0
bin	115000	0
bin	120000	0
bin	125000	0
bin	130000	0
bin	135000	0
bin	140000	0
bin	145000	0
bin	150000	0
bin	155000	0
bin	160000	0
bin	165000	204624
bin	170000	0
bin	175000	0
bin	180000	0
bin	185000	0
bin	190000	0
bin	195000	0
bin	200000	0
bin	205000	0
bin	210000	0
bin	215000	0
statistic FinalTask.Client[7].wlan[0].radio packetErrorRate:histogram
field count 10455854
field mean 0.00099212685706355
field stddev 0.031476390512868
field min 0
field max 1
field sum 10373.533566935
field sqrsum 10369.565817087
attr source packetErrorRate(packetSentToUpper)
attr title "Packet error rate, histogram"
bin	-inf	0
bin	-0.5	0
bin	-0.48	0
bin	-0.46	0
bin	-0.44	0
bin	-0.42	0
bin	-0.4	0
bin	-0.38	0
bin	-0.36	0
bin	-0.34	0
bin	-0.32	0
bin	-0.3	0
bin	-0.28	0
bin	-0.26	0
bin	-0.24	0
bin	-0.22	0
bin	-0.2	0
bin	-0.18	0
bin	-0.16	0
bin	-0.14	0
bin	-0.12	0
bin	-0.1	0
bin	-0.08	0
bin	-0.06	0
bin	-0.04	0
bin	-0.02	0
bin	0	10445476
bin	0.02	0
bin	0.04	0
bin	0.06	0
bin	0.08	0
bin	0.1	0
bin	0.12	0
bin	0.14	0
bin	0.16	0
bin	0.18	0
bin	0.2	0
bin	0.22	0
bin	0.24	0
bin	0.26	0
bin	0.28	0
bin	0.3	0
bin	0.32	0
bin	0.34	0
bin	0.36	0
bin	0.38	0
bin	0.4	0
bin	0.42	0
bin	0.44	0
bin	0.46	0
bin	0.48	0
bin	0.5	0
bin	0.52	0
bin	0.54	0
bin	0.56	0
bin	0.58	0
bin	0.6	0
bin	0.62	0
bin	0.64	0
bin	0.66	0
bin	0.68	0
bin	0.7	0
bin	0.72	0
bin	0.74	0
bin	0.76	0
bin	0.78	0
bin	0.8	0
bin	0.82	0
bin	0.84	0
bin	0.86	0
bin	0.88	40
bin	0.9	0
bin	0.92	0
bin	0.94	0
bin	0.96	0
bin	0.98	2
bin	1	10336
bin	1.02	0
statistic FinalTask.Client[7].wlan[0].radio bitErrorRate:histogram
field count 0
field mean -nan
field stddev -nan
field min -nan
field max -nan
field sum 0
field sqrsum 0
attr source bitErrorRate(packetSentToUpper)
attr title "Bit error rate, histogram"
bin	-inf	0
bin	0	0
bin	1	0
statistic FinalTask.Client[7].wlan[0].radio symbolErrorRate:histogram
field count 0
field mean -nan
field stddev -nan
field min -nan
field max -nan
field sum 0
field sqrsum 0
attr source symbolErrorRate(packetSentToUpper)
attr title "Symbol error rate, histogram"
bin	-inf	0
bin	0	0
bin	1	0
scalar FinalTask.Client[7].ipv4.ip packetDropAddressResolutionFailed:count 0
attr interpolationmode none
attr source packetDropReasonIsAddressResolutionFailed(packetDropped)
attr title "packet drop: address resolution failed, count"
scalar FinalTask.Client[7].ipv4.ip packetDropAddressResolutionFailed:sum(packetBytes) 0
attr interpolationmode none
attr source packetDropReasonIsAddressResolutionFailed(packetDropped)
attr title "packet drop: address resolution failed, sum(packetBytes)"
scalar FinalTask.Client[7].ipv4.ip packetDropHopLimitReached:count 0
attr interpolationmode none
attr source packetDropReasonIsHopLimitReached(packetDropped)
attr title "packet drop: hop limit reached, count"
scalar FinalTask.Client[7].ipv4.ip packetDropHopLimitReached:sum(packetBytes) 0
attr interpolationmode none
attr source packetDropReasonIsHopLimitReached(packetDropped)
attr title "packet drop: hop limit reached, sum(packetBytes)"
scalar FinalTask.Client[7].ipv4.ip packetDropForwardingDisabled:count 0
attr interpolationmode none
attr source packetDropReasonIsForwardingDisabled(packetDropped)
attr title "packet drop: forwarding disabled, count"
scalar FinalTask.Client[7].ipv4.ip packetDropForwardingDisabled:sum(packetBytes) 0
attr interpolationmode none
attr source packetDropReasonIsForwardingDisabled(packetDropped)
attr title "packet drop: forwarding disabled, sum(packetBytes)"
scalar FinalTask.Client[7].ipv4.ip packetDropNoInterfaceFound:count 0
attr interpolationmode none
attr source packetDropReasonIsNoInterfaceFound(packetDropped)
attr title "packet drop: no interface found, count"
scalar FinalTask.Client[7].ipv4.ip packetDropNoInterfaceFound:sum(packetBytes) 0
attr interpolationmode none
attr source packetDropReasonIsNoInterfaceFound(packetDropped)
attr title "packet drop: no interface found, sum(packetBytes)"
scalar FinalTask.Client[7].ipv4.ip packetDropNoRouteFound:count 0
attr interpolationmode none
attr source packetDropReasonIsNoRouteFound(packetDropped)
attr title "packet drop: no route found, count"
scalar FinalTask.Client[7].ipv4.ip packetDropNoRouteFound:sum(packetBytes) 0
attr interpolationmode none
attr source packetDropReasonIsNoRouteFound(packetDropped)
attr title "packet drop: no route found, sum(packetBytes)"
scalar FinalTask.Client[7].ipv4.ip packetDropUndefined:count 0
attr interpolationmode none
attr source packetDropReasonIsUndefined(packetDropped)
attr title "packet drop: undefined, count"
scalar FinalTask.Client[7].ipv4.ip packetDropUndefined:sum(packetBytes) 0
attr interpolationmode none
attr source packetDropReasonIsUndefined(packetDropped)
attr title "packet drop: undefined, sum(packetBytes)"
scalar FinalTask.Client[7].ipv4.arp arpResolutionFailed:count 0
attr title "ARP failed resolutions, count"
scalar FinalTask.Client[7].ipv4.arp arpResolutionCompleted:count 160
attr title "ARP completed resolutions, count"
scalar FinalTask.Client[7].ipv4.arp arpResolutionInitiated:count 1
attr title "ARP initiated resolutions, count"
scalar FinalTask.Client[7].ipv4.arp arpReplySent:count 16
attr source arpReplySent
attr title "ARP replies sent, count"
scalar FinalTask.Client[7].ipv4.arp arpReplySent:sum(packetBytes) 448
attr source arpReplySent
attr title "ARP replies sent, sum(packetBytes)"
scalar FinalTask.Client[7].ipv4.arp arpRequestSent:count 2
attr source arpRequestSent
attr title "ARP request sent, count"
scalar FinalTask.Client[7].ipv4.arp arpRequestSent:sum(packetBytes) 56
attr source arpRequestSent
attr title "ARP request sent, sum(packetBytes)"
scalar FinalTask.Client[7].udp packetReceived:count 0
attr interpolationmode none
attr source packetReceived
attr title "packets received, count"
scalar FinalTask.Client[7].udp packetReceived:sum(packetBytes) 0
attr interpolationmode none
attr source packetReceived
attr title "packets received, sum(packetBytes)"
scalar FinalTask.Client[7].udp packetSent:count 0
attr interpolationmode none
attr source packetSent
attr title "packets sent, count"
scalar FinalTask.Client[7].udp packetSent:sum(packetBytes) 0
attr interpolationmode none
attr source packetSent
attr title "packets sent, sum(packetBytes)"
scalar FinalTask.Client[7].udp passedUpPk:count 0
attr interpolationmode none
attr source packetSentToUpper
attr title "packets passed up, count"
scalar FinalTask.Client[7].udp droppedPkWrongPort:count 0
attr interpolationmode none
attr source packetDropReasonIsNoPortFound(packetDropped)
attr title "packets dropped (wrong port), count"
scalar FinalTask.Client[7].udp droppedPkBadChecksum:count 0
attr interpolationmode none
attr source packetDropReasonIsIncorrectlyReceived(packetDropped)
attr title "packets dropped (checksum error), count"
scalar FinalTask.Client[7].app[0] packetReceived:count 50459
attr interpolationmode none
attr source packetReceived
attr title "packets received, count"
scalar FinalTask.Client[7].app[0] packetReceived:sum(packetBytes) 97871677
attr interpolationmode none
attr source packetReceived
attr title "packets received, sum(packetBytes)"
statistic FinalTask.Client[7].app[0] endToEndDelay:histogram
field count 133426
field mean 4.0519854332791
field stddev 3.896864239111
field min 0.060713928921
field max 25.969511705555
field sum 540640.2084207
field sqrsum 4216798.3777396
attr interpolationmode none
attr source dataAge(packetReceived)
attr title "end-to-end delay, histogram"
attr unit s
bin	-inf	0
bin	0	1804
bin	0.4	12872
bin	0.8	37143
bin	1.2	6138
bin	1.6	3297
bin	2	3476
bin	2.4	3674
bin	2.8	3490
bin	3.2	3942
bin	3.6	4520
bin	4	4613
bin	4.4	4424
bin	4.8	4062
bin	5.2	3416
bin	5.6	3549
bin	6	3321
bin	6.4	2367
bin	6.8	1990
bin	7.2	1743
bin	7.6	1340
bin	8	1560
bin	8.4	1929
bin	8.8	1773
bin	9.2	2064
bin	9.6	1830
bin	10	1583
bin	10.4	1347
bin	10.8	929
bin	11.2	738
bin	11.6	971
bin	12	1149
bin	12.4	657
bin	12.8	749
bin	13.2	841
bin	13.6	723
bin	14	461
bin	14.4	621
bin	14.8	184
bin	15.2	405
bin	15.6	610
bin	16	329
bin	16.4	189
bin	16.8	166
bin	17.2	151
bin	17.6	59
bin	18	72
bin	18.4	73
bin	18.8	1
bin	19.2	0
bin	19.6	0
bin	20	0
bin	20.4	5
bin	20.8	0
bin	21.2	0
bin	21.6	0
bin	22	15
bin	22.4	0
bin	22.8	0
bin	23.2	0
bin	23.6	0
bin	24	0
bin	24.4	0
bin	24.8	0
bin	25.2	0
bin	25.6	61
bin	26	0
statistic FinalTask.Client[7].app[0] endToEndDelay:weightedHistogram
field count 133426
field mean 4.06781060359
field stddev 3.8978269203545
field min 0.060713928921
field max 25.969511705555
field weights 782973416
field weightedSum 3184987563.9339
field sqrSumWeights 10695301022016
field weightedSqrSum 24851476588.741
attr interpolationmode none
attr source dataAge(packetReceived)
attr title "end-to-end delay, weightedHistogram"
attr unit s
bin	-inf	0
bin	0	10535360
bin	0.4	75172480
bin	0.8	216915120
bin	1.2	35846312
bin	1.6	19254480
bin	2	20299656
bin	2.4	21454968
bin	2.8	20389104
bin	3.2	23070304
bin	3.6	26547880
bin	4	26947768
bin	4.4	25872088
bin	4.8	23774424
bin	5.2	20147784
bin	5.6	20834536
bin	6	19893344
bin	6.4	14851816
bin	6.8	11646824
bin	7.2	10165936
bin	7.6	8661704
bin	8	9117696
bin	8.4	11653568
bin	8.8	10363240
bin	9.2	12045080
bin	9.6	10716168
bin	10	9249368
bin	10.4	7972824
bin	10.8	5413848
bin	11.2	4306208
bin	11.6	5693864
bin	12	6753456
bin	12.4	3831896
bin	12.8	4374152
bin	13.2	4919632
bin	13.6	4220584
bin	14	2704816
bin	14.4	3715944
bin	14.8	1066328
bin	15.2	2362200
bin	15.6	3667056
bin	16	1914616
bin	16.4	1096016
bin	16.8	969440
bin	17.2	886128
bin	17.6	341360
bin	18	420480
bin	18.4	431112
bin	18.8	6016
bin	19.2	0
bin	19.6	0
bin	20	0
bin	20.4	26744
bin	20.8	0
bin	21.2	0
bin	21.6	0
bin	22	93024
bin	22.4	0
bin	22.8	0
bin	23.2	0
bin	23.6	0
bin	24	0
bin	24.4	0
bin	24.8	0
bin	25.2	0
bin	25.6	358664
bin	26	0
scalar FinalTask.Client[7].app[0] packetSent:count 148
attr interpolationmode none
attr source packetSent
attr title "packets sent, count"
scalar FinalTask.Client[7].app[0] packetSent:sum(packetBytes) 37592
attr interpolationmode none
attr source packetSent
attr title "packets sent, sum(packetBytes)"
scalar FinalTask.Client[7].app[0] numActiveSessions:max 1
attr interpolationmode sample-hold
attr source sum(connect)
attr title "number of active sessions, max"
scalar FinalTask.Client[7].app[0] numActiveSessions:timeavg 0.030212598253344
attr interpolationmode sample-hold
attr source sum(connect)
attr title "number of active sessions, timeavg"
scalar FinalTask.Client[7].app[0] numSessions:last 148
attr source sum(connect+1)/2
attr title "total number of sessions, last"
scalar FinalTask.radioMedium.propagation "Arrival computation count" 106804150
scalar FinalTask.radioMedium "transmission count" 10680415
scalar FinalTask.radioMedium "signal send count" 106804150
scalar FinalTask.radioMedium "reception computation count" 106804150
scalar FinalTask.radioMedium "interference computation count" 330906165
scalar FinalTask.radioMedium "reception decision computation count" 106680741
scalar FinalTask.radioMedium "listening decision computation count" 117443752
scalar FinalTask.radioMedium "reception cache hit" 85.710443662593
attr unit %
scalar FinalTask.radioMedium "interference cache hit" 66.666666666667
attr unit %
scalar FinalTask.radioMedium "noise cache hit" 0
attr unit %
scalar FinalTask.radioMedium "snir cache hit" 50
attr unit %
scalar FinalTask.radioMedium "reception decision cache hit" 50
attr unit %
scalar FinalTask.radioMedium "reception result cache hit" 0
attr unit %

