version 2
run VC_with_HTTP_Only-10-20200817-09:22:45-22288
attr configname VC_with_HTTP_Only
attr datetime 20200817-09:22:45
attr experiment VC_with_HTTP_Only
attr inifile omnetpp.ini
attr iterationvars $time=2000
attr iterationvarsf time=2000-
attr measurement $time=2000
attr network FinalTask
attr processid 22288
attr repetition 10
attr replication #10
attr resultdir results
attr runnumber 10
attr seedset 10
itervar time 2000
param **.Client[*].numApps 1
param **.Client[*].app[0].typename "\"TcpBasicClientApp\""
param **.Client[*].app[0].connectAddress "\"HTTPServer\""
param **.Client[*].app[0].connectPort 10021
param **.Client[*].app[0].replyLength "1B * int(truncnormal(658797,64411))"
param **.Client[*].app[0].requestLength 254B
param **.Client[*].app[0].idleInterval 3s
param **.Client[*].app[0].thinkTime 0s
param **.Client[*].app[0].startTime uniform(0s,1s)
param **.ppp[*].ppp.queue.typename "\"DropTailQueue\""
param **.LISPRouter.ppp[*].ppp.queue.packetCapacity 70
param **.LRouter.ppp[*].ppp.queue.packetCapacity 70
param **.DISPRouter.ppp[*].ppp.queue.packetCapacity 70
param **.DRouter.ppp[*].ppp.queue.packetCapacity 70
param **.opMode "\"g(mixed)\""
param **.channelNumber 0
param **.wlan[*].bitrate 54Mbps
param **.wlan[*].mac.dcf.rtsPolicy.rtsThreshold 3000B
param **.address "\"auto\""
param **.constraintAreaMinX 0m
param **.constraintAreaMinY 0m
param **.constraintAreaMinZ 0m
param **.constraintAreaMaxX 250m
param **.constraintAreaMaxY 30m
param **.constraintAreaMaxZ 0m
param **.AP.mobility.typename "\"StationaryMobility\""
param **.AP.mobility.initialX 125m
param **.AP.mobility.initialY 15m
param **.AP.mobility.initialZ 0m
param **.initFromDisplayString false
param **.tcp.typename "\"Tcp\""
param **.tcpAlgorithmClass "\"TcpNewReno\""
param **.tcp.mss 1460
param **.dataTransferMode "\"object\""
param **.tcp.advertisedWindow "1000 * this.mss"
param **.tcp.windowScalingSupport true
param **.FTPServer.numApps 1
param **.FTPServer.app[0].typename "\"TcpSinkApp\""
param **.FTPServer.app[0].localPort 21
param **.HTTPServer.numApps 1
param **.HTTPServer.app[0].typename "\"TcpGenericServerApp\""
param **.HTTPServer.app[0].localPort 10021
param **.Professor.numApps 1
param **.Student.numApps 1
param **.Professor.app[0].typename "\"VideoConfApp\""
param **.Professor.app[0].destPort 100
param **.Professor.app[0].localPort 100
param **.Professor.app[0].messageLength "1400B + 12B"
param **.Professor.app[0].sendInterval 0.04s
param **.Student.app[0].typename "\"VideoConfApp\""
param **.Student.app[0].destPort 100
param **.Student.app[0].localPort 100
param **.Student.app[0].messageLength "1400B + 12B"
param **.Student.app[0].sendInterval 0.04s
param **.Professor.app[0].destAddresses "\"Student\""
param **.Student.app[0].destAddresses "\"Professor\""

scalar FinalTask.AP.ethg$o[0].channel throughput:last 448629.20584202
attr source sumPerDuration(packetBits(messageSent))
attr unit bps
scalar FinalTask.DRouter.pppg$o[0].channel throughput:last 391308.51774308
attr source sumPerDuration(packetBits(messageSent))
attr unit bps
scalar FinalTask.DRouter.ethg$o[0].channel throughput:last 3654092.0548936
attr source sumPerDuration(packetBits(messageSent))
attr unit bps
scalar FinalTask.DISPRouter.pppg$o[0].channel throughput:last 3607996.441645
attr source sumPerDuration(packetBits(messageSent))
attr unit bps
scalar FinalTask.DISPRouter.ethg$o[0].channel throughput:last 155412.46474579
attr source sumPerDuration(packetBits(messageSent))
attr unit bps
scalar FinalTask.DISPRouter.ethg$o[1].channel throughput:last 293205.08840782
attr source sumPerDuration(packetBits(messageSent))
attr unit bps
scalar FinalTask.HTTPServer.ethg$o[0].channel throughput:last 3360922.8808114
attr source sumPerDuration(packetBits(messageSent))
attr unit bps
scalar FinalTask.LISPRouter.pppg$o[0].channel throughput:last 289391.20649296
attr source sumPerDuration(packetBits(messageSent))
attr unit bps
scalar FinalTask.LISPRouter.ethg$o[0].channel throughput:last 293203.46980693
attr source sumPerDuration(packetBits(messageSent))
attr unit bps
scalar FinalTask.LRouter.pppg$o[0].channel throughput:last 289399.98302201
attr source sumPerDuration(packetBits(messageSent))
attr unit bps
scalar FinalTask.LRouter.ethg$o[0].channel throughput:last nan
attr source sumPerDuration(packetBits(messageSent))
attr unit bps
scalar FinalTask.LRouter.ethg$o[1].channel throughput:last 293195.7749467
attr source sumPerDuration(packetBits(messageSent))
attr unit bps
scalar FinalTask.FTPServer.ethg$o[0].channel throughput:last nan
attr source sumPerDuration(packetBits(messageSent))
attr unit bps
scalar FinalTask.Professor.ethg$o[0].channel throughput:last 293204.896
attr source sumPerDuration(packetBits(messageSent))
attr unit bps
scalar FinalTask.AP.relayUnit "number of received BPDUs from STP module" 0
scalar FinalTask.AP.relayUnit "number of received frames from network (including BPDUs)" 1190970
scalar FinalTask.AP.relayUnit "number of dropped frames (including BPDUs)" 0
scalar FinalTask.AP.relayUnit "number of delivered BPDUs to the STP module" 0
scalar FinalTask.AP.relayUnit "number of dispatched BPDU frames to the network" 0
scalar FinalTask.AP.relayUnit "number of dispatched non-BDPU frames to the network" 1190970
scalar FinalTask.AP.wlan[0].mac.dcf.channelAccess.pendingQueue packetPopped:count 604749
attr interpolationmode none
attr title "packet popped, count"
scalar FinalTask.AP.wlan[0].mac.dcf.channelAccess.pendingQueue packetPopped:sum(packetBytes) 889103735
attr interpolationmode none
attr title "packet popped, sum(packetBytes)"
statistic FinalTask.AP.wlan[0].mac.dcf.channelAccess.pendingQueue queueingTime:histogram
field count 604749
field mean 0.024850297526897
field stddev 0.026703517719997
field min 0
field max 1.263855066221
field sum 15028.192579093
field sqrsum 804.687465728
attr interpolationmode none
attr source queueingTime(packetPopped)
attr title "queueing times, histogram"
attr unit s
bin	-inf	0
bin	0	334957
bin	0.02	109221
bin	0.04	79632
bin	0.06	44998
bin	0.08	35936
bin	0.1	0
bin	0.12	0
bin	0.14	0
bin	0.16	0
bin	0.18	0
bin	0.2	0
bin	0.22	0
bin	0.24	0
bin	0.26	0
bin	0.28	0
bin	0.3	0
bin	0.32	0
bin	0.34	0
bin	0.36	0
bin	0.38	0
bin	0.4	0
bin	0.42	0
bin	0.44	0
bin	0.46	0
bin	0.48	0
bin	0.5	0
bin	0.52	0
bin	0.54	0
bin	0.56	0
bin	0.58	1
bin	0.6	0
bin	0.62	0
bin	0.64	0
bin	0.66	0
bin	0.68	1
bin	0.7	1
bin	0.72	0
bin	0.74	0
bin	0.76	0
bin	0.78	0
bin	0.8	0
bin	0.82	0
bin	0.84	0
bin	0.86	0
bin	0.88	0
bin	0.9	0
bin	0.92	0
bin	0.94	0
bin	0.96	0
bin	0.98	0
bin	1	0
bin	1.02	0
bin	1.04	1
bin	1.06	0
bin	1.08	0
bin	1.1	0
bin	1.12	0
bin	1.14	0
bin	1.16	0
bin	1.18	0
bin	1.2	0
bin	1.22	0
bin	1.24	0
bin	1.26	1
bin	1.28	0
bin	1.3	0
bin	1.32	0
scalar FinalTask.AP.wlan[0].mac.dcf.channelAccess.pendingQueue queueLength:max 101
attr interpolationmode sample-hold
attr source "count(packetPushed) - count(packetPopped) - count(packetRemoved) - count(packetDropped)"
attr title "queue length, max"
scalar FinalTask.AP.wlan[0].mac.dcf.channelAccess.pendingQueue queueLength:timeavg 7.5122786211873
attr interpolationmode sample-hold
attr source "count(packetPushed) - count(packetPopped) - count(packetRemoved) - count(packetDropped)"
attr title "queue length, timeavg"
scalar FinalTask.AP.wlan[0].mac.dcf.channelAccess.pendingQueue packetPushed:count 625394
attr interpolationmode none
attr title "packet pushed, count"
scalar FinalTask.AP.wlan[0].mac.dcf.channelAccess.pendingQueue packetPushed:sum(packetBytes) 920534208
attr interpolationmode none
attr title "packet pushed, sum(packetBytes)"
scalar FinalTask.AP.wlan[0].mac.dcf.channelAccess.pendingQueue packetDropQueueOverflow:count 20645
attr interpolationmode none
attr source packetDropReasonIsQueueOverflow(packetDropped)
attr title "packet drops: queue overflow, count"
scalar FinalTask.AP.wlan[0].mac.dcf.channelAccess.pendingQueue packetDropQueueOverflow:sum(packetBytes) 31430473
attr interpolationmode none
attr source packetDropReasonIsQueueOverflow(packetDropped)
attr title "packet drops: queue overflow, sum(packetBytes)"
scalar FinalTask.AP.wlan[0].mac.dcf.channelAccess.pendingQueue packetRemoved:count 0
attr interpolationmode none
attr title "packets removed, count"
scalar FinalTask.AP.wlan[0].mac.dcf.channelAccess.pendingQueue packetRemoved:sum(packetBytes) 0
attr interpolationmode none
attr title "packets removed, sum(packetBytes)"
statistic FinalTask.AP.wlan[0].mac.dcf.channelAccess.inProgressFrames queueingTime:histogram
field count 1134231
field mean 0.00083558079805953
field stddev 0.0003468294073715
field min 3.8e-05
field max 0.003736825925
field sum 947.74164416385
field sqrsum 0.92835196951661
attr interpolationmode none
attr source queueingTime(packetDequeued)
attr title "queueing times, histogram"
bin	-inf	0
bin	0	15628
bin	5e-05	2346
bin	0.0001	53
bin	0.00015	304
bin	0.0002	494
bin	0.00025	90355
bin	0.0003	423
bin	0.00035	51740
bin	0.0004	15278
bin	0.00045	38812
bin	0.0005	46348
bin	0.00055	56293
bin	0.0006	51781
bin	0.00065	48180
bin	0.0007	55234
bin	0.00075	46624
bin	0.0008	59039
bin	0.00085	45314
bin	0.0009	61618
bin	0.00095	45318
bin	0.001	62738
bin	0.00105	46572
bin	0.0011	63903
bin	0.00115	48995
bin	0.0012	46341
bin	0.00125	40707
bin	0.0013	26307
bin	0.00135	23228
bin	0.0014	15205
bin	0.00145	7904
bin	0.0015	9096
bin	0.00155	3383
bin	0.0016	2580
bin	0.00165	2258
bin	0.0017	1005
bin	0.00175	934
bin	0.0018	440
bin	0.00185	343
bin	0.0019	156
bin	0.00195	115
bin	0.002	75
bin	0.00205	61
bin	0.0021	52
bin	0.00215	46
bin	0.0022	36
bin	0.00225	35
bin	0.0023	39
bin	0.00235	41
bin	0.0024	48
bin	0.00245	41
bin	0.0025	37
bin	0.00255	37
bin	0.0026	29
bin	0.00265	29
bin	0.0027	26
bin	0.00275	28
bin	0.0028	33
bin	0.00285	29
bin	0.0029	29
bin	0.00295	23
bin	0.003	23
bin	0.00305	11
bin	0.0031	6
bin	0.00315	5
bin	0.0032	4
bin	0.00325	2
bin	0.0033	6
bin	0.00335	0
bin	0.0034	4
bin	0.00345	0
bin	0.0035	2
bin	0.00355	0
bin	0.0036	1
bin	0.00365	0
bin	0.0037	1
bin	0.00375	0
scalar FinalTask.AP.wlan[0].mac.dcf.channelAccess.inProgressFrames queueLength:max 3
attr interpolationmode sample-hold
attr source "count(packetEnqueued) - count(packetDequeued)"
attr title "queue length, max"
scalar FinalTask.AP.wlan[0].mac.dcf.channelAccess.inProgressFrames queueLength:timeavg 0.47389007673286
attr interpolationmode sample-hold
attr source "count(packetEnqueued) - count(packetDequeued)"
attr title "queue length, timeavg"
scalar FinalTask.AP.wlan[0].mac.dcf.channelAccess.contention channelAccessGranted:count 605458
attr title "channel access granted, count"
scalar FinalTask.AP.wlan[0].mac.dcf.channelAccess.contention stateChanged:count 9530278
attr interpolationmode none
attr title "contention state changed, count"
scalar FinalTask.AP.wlan[0].mac.dcf.channelAccess channelOwnershipChanged:count 1210916
attr interpolationmode sample-hold
attr title "channel ownership, count"
scalar FinalTask.AP.wlan[0].mac.dcf.originatorMacDataService packetAggregated:count 0
attr title "packets aggregated, count"
scalar FinalTask.AP.wlan[0].mac.dcf.originatorMacDataService packetFragmented:count 529482
attr title "packets fragmented, count"
scalar FinalTask.AP.wlan[0].mac.dcf.recipientMacDataService packetDeaggregated:count 0
attr title "packets deaggregated, count"
scalar FinalTask.AP.wlan[0].mac.dcf.recipientMacDataService packetDefragmented:count 585629
attr title "packets defragmented, count"
scalar FinalTask.AP.wlan[0].mac.dcf.recipientMacDataService packetDropDuplicateDetected:count 0
attr interpolationmode none
attr source packetDropReasonIsDuplicateDetected(packetDropped)
attr title "packet drops: duplicate detected, count"
scalar FinalTask.AP.wlan[0].mac.dcf.recipientMacDataService packetDropDuplicateDetected:sum(packetBytes) 0
attr interpolationmode none
attr source packetDropReasonIsDuplicateDetected(packetDropped)
attr title "packet drops: duplicate detected, sum(packetBytes)"
scalar FinalTask.AP.wlan[0].mac.dcf.recoveryProcedure retryLimitReached:count 0
attr title "retry limit reached, count"
scalar FinalTask.AP.wlan[0].mac.dcf frameSequenceFinished:count 605458
attr title "finished frame sequences, count"
statistic FinalTask.AP.wlan[0].mac.dcf frameSequenceDuration:histogram
field count 605458
field mean 0.00036516832332753
field stddev 6.9748838077074e-05
field min 3.8e-05
field max 0.000387380264
field sum 221.09408270524
field sqrsum 0.083682043488527
attr source frameSequenceDuration(frameSequenceFinished)
attr title "frame sequence durations, histogram"
bin	-inf	0
bin	0	0
bin	1e-05	0
bin	2e-05	0
bin	3e-05	5
bin	4e-05	20084
bin	5e-05	0
bin	6e-05	0
bin	7e-05	0
bin	8e-05	4076
bin	9e-05	105
bin	0.0001	43
bin	0.00011	70
bin	0.00012	44
bin	0.00013	74
bin	0.00014	45
bin	0.00015	70
bin	0.00016	47
bin	0.00017	59
bin	0.00018	50
bin	0.00019	197
bin	0.0002	48
bin	0.00021	65
bin	0.00022	53
bin	0.00023	55
bin	0.00024	43
bin	0.00025	81
bin	0.00026	40
bin	0.00027	52
bin	0.00028	57
bin	0.00029	49817
bin	0.0003	689
bin	0.00031	0
bin	0.00032	0
bin	0.00033	7
bin	0.00034	0
bin	0.00035	0
bin	0.00036	0
bin	0.00037	0
bin	0.00038	529482
bin	0.00039	0
bin	0.0004	0
bin	0.00041	0
bin	0.00042	0
bin	0.00043	0
bin	0.00044	0
bin	0.00045	0
bin	0.00046	0
bin	0.00047	0
bin	0.00048	0
statistic FinalTask.AP.wlan[0].mac.dcf frameSequenceNumPackets:histogram
field count 605458
field mean 3.7158498194755
field stddev 0.76622420203367
field min 1
field max 4
field sum 2249791
field sqrsum 8715349
attr source frameSequenceNumPackets(frameSequenceFinished)
attr title "frame sequences: number of packets, histogram"
bin	-inf	0
bin	0	0
bin	1	20089
bin	2	55887
bin	3	0
bin	4	529482
bin	5	0
scalar FinalTask.AP.wlan[0].mac.dcf packetReceivedFromPeer:count 1699771
attr interpolationmode none
attr title "packets received, count"
scalar FinalTask.AP.wlan[0].mac.dcf packetReceivedFromPeer:sum(packetBytes) 130410254
attr interpolationmode none
attr title "packets received, sum(packetBytes)"
scalar FinalTask.AP.wlan[0].mac.dcf packetReceivedFromPeerUnicast:count 1699765
attr interpolationmode none
attr source ieee80211Unicast(packetReceivedFromPeer)
attr title "packets received: unicast, count"
scalar FinalTask.AP.wlan[0].mac.dcf packetReceivedFromPeerUnicast:sum(packetBytes) 130410062
attr interpolationmode none
attr source ieee80211Unicast(packetReceivedFromPeer)
attr title "packets received: unicast, sum(packetBytes)"
scalar FinalTask.AP.wlan[0].mac.dcf packetReceivedFromPeerMulticast:count 6
attr interpolationmode none
attr source ieee80211Multicast(packetReceivedFromPeer)
attr title "packets received: multicast, count"
scalar FinalTask.AP.wlan[0].mac.dcf packetReceivedFromPeerMulticast:sum(packetBytes) 192
attr interpolationmode none
attr source ieee80211Multicast(packetReceivedFromPeer)
attr title "packets received: multicast, sum(packetBytes)"
scalar FinalTask.AP.wlan[0].mac.dcf packetReceivedFromPeerBroadcast:count 6
attr interpolationmode none
attr source ieee80211Broadcast(packetReceivedFromPeer)
attr title "packets received: broadcast, count"
scalar FinalTask.AP.wlan[0].mac.dcf packetReceivedFromPeerBroadcast:sum(packetBytes) 192
attr interpolationmode none
attr source ieee80211Broadcast(packetReceivedFromPeer)
attr title "packets received: broadcast, sum(packetBytes)"
scalar FinalTask.AP.wlan[0].mac.dcf packetReceivedFromPeerWithRetry:count 1527
attr interpolationmode none
attr source ieee80211Retry(packetReceivedFromPeer)
attr title "packets received: with retry, count"
scalar FinalTask.AP.wlan[0].mac.dcf packetReceivedFromPeerWithRetry:sum(packetBytes) 454276
attr interpolationmode none
attr source ieee80211Retry(packetReceivedFromPeer)
attr title "packets received: with retry, sum(packetBytes)"
scalar FinalTask.AP.wlan[0].mac.dcf packetReceivedFromPeerWithoutRetry:count 1698244
attr interpolationmode none
attr source ieee80211NotRetry(packetReceivedFromPeer)
attr title "packets received: without retry, count"
scalar FinalTask.AP.wlan[0].mac.dcf packetReceivedFromPeerWithoutRetry:sum(packetBytes) 129955978
attr interpolationmode none
attr source ieee80211NotRetry(packetReceivedFromPeer)
attr title "packets received: without retry, sum(packetBytes)"
scalar FinalTask.AP.wlan[0].mac.dcf packetSentToPeer:count 1720563
attr interpolationmode none
attr title "packets sent, count"
scalar FinalTask.AP.wlan[0].mac.dcf packetSentToPeer:sum(packetBytes) 913173788
attr interpolationmode none
attr title "packets sent, sum(packetBytes)"
scalar FinalTask.AP.wlan[0].mac.dcf packetSentToPeerUnicast:count 1700474
attr interpolationmode none
attr source ieee80211Unicast(packetSentToPeer)
attr title "packets sent: unicast, count"
scalar FinalTask.AP.wlan[0].mac.dcf packetSentToPeerUnicast:sum(packetBytes) 912206580
attr interpolationmode none
attr source ieee80211Unicast(packetSentToPeer)
attr title "packets sent: unicast, sum(packetBytes)"
scalar FinalTask.AP.wlan[0].mac.dcf packetSentToPeerMulticast:count 20089
attr interpolationmode none
attr source ieee80211Multicast(packetSentToPeer)
attr title "packets sent: multicast, count"
scalar FinalTask.AP.wlan[0].mac.dcf packetSentToPeerMulticast:sum(packetBytes) 967208
attr interpolationmode none
attr source ieee80211Multicast(packetSentToPeer)
attr title "packets sent: multicast, sum(packetBytes)"
scalar FinalTask.AP.wlan[0].mac.dcf packetSentToPeerBroadcast:count 20089
attr interpolationmode none
attr source ieee80211Broadcast(packetSentToPeer)
attr title "packets sent: broadcast , count"
scalar FinalTask.AP.wlan[0].mac.dcf packetSentToPeerBroadcast:sum(packetBytes) 967208
attr interpolationmode none
attr source ieee80211Broadcast(packetSentToPeer)
attr title "packets sent: broadcast , sum(packetBytes)"
scalar FinalTask.AP.wlan[0].mac.dcf packetSentToPeerWithRetry:count 709
attr interpolationmode none
attr source ieee80211Retry(packetSentToPeer)
attr title "packets sent: with retry, count"
scalar FinalTask.AP.wlan[0].mac.dcf packetSentToPeerWithRetry:sum(packetBytes) 1045835
attr interpolationmode none
attr source ieee80211Retry(packetSentToPeer)
attr title "packets sent: with retry, sum(packetBytes)"
scalar FinalTask.AP.wlan[0].mac.dcf packetSentToPeerWithoutRetry:count 1719854
attr interpolationmode none
attr source ieee80211NotRetry(packetSentToPeer)
attr title "packets sent: without retry, count"
scalar FinalTask.AP.wlan[0].mac.dcf packetSentToPeerWithoutRetry:sum(packetBytes) 912127953
attr interpolationmode none
attr source ieee80211NotRetry(packetSentToPeer)
attr title "packets sent: without retry, sum(packetBytes)"
scalar FinalTask.AP.wlan[0].mac.dcf packetDrop:count 20645
attr interpolationmode none
attr source packetDropped
attr title "packet drops, count"
scalar FinalTask.AP.wlan[0].mac.dcf packetDrop:sum(packetBytes) 31430473
attr interpolationmode none
attr source packetDropped
attr title "packet drops, sum(packetBytes)"
scalar FinalTask.AP.wlan[0].mac.dcf packetDropNotAddressedToUs:count 0
attr interpolationmode none
attr source packetDropReasonIsNotAddressedToUs(packetDropped)
attr title "packet drops: not addressed to us, count"
scalar FinalTask.AP.wlan[0].mac.dcf packetDropNotAddressedToUs:sum(packetBytes) 0
attr interpolationmode none
attr source packetDropReasonIsNotAddressedToUs(packetDropped)
attr title "packet drops: not addressed to us, sum(packetBytes)"
scalar FinalTask.AP.wlan[0].mac.dcf packetDropQueueOverflow:count 20645
attr interpolationmode none
attr source packetDropReasonIsQueueOverflow(packetDropped)
attr title "packet drops: queue overflow, count"
scalar FinalTask.AP.wlan[0].mac.dcf packetDropQueueOverflow:sum(packetBytes) 31430473
attr interpolationmode none
attr source packetDropReasonIsQueueOverflow(packetDropped)
attr title "packet drops: queue overflow, sum(packetBytes)"
scalar FinalTask.AP.wlan[0].mac.dcf packetDropRetryLimitReached:count 0
attr interpolationmode none
attr source packetDropReasonIsRetryLimitReached(packetDropped)
attr title "packet drops: retry limit reached, count"
scalar FinalTask.AP.wlan[0].mac.dcf packetDropRetryLimitReached:sum(packetBytes) 0
attr interpolationmode none
attr source packetDropReasonIsRetryLimitReached(packetDropped)
attr title "packet drops: retry limit reached, sum(packetBytes)"
scalar FinalTask.AP.wlan[0].mac.dcf linkBroken:count 0
attr interpolationmode none
attr title "link breaks, count"
scalar FinalTask.AP.wlan[0].mac packetReceivedFromLower:count 1700072
attr interpolationmode none
attr title "packets received from lower layer, count"
scalar FinalTask.AP.wlan[0].mac packetReceivedFromLower:sum(packetBytes) 130434658
attr interpolationmode none
attr title "packets received from lower layer, sum(packetBytes)"
scalar FinalTask.AP.wlan[0].mac packetSentToLower:count 1720563
attr interpolationmode none
attr title "packets sent to lower layer, count"
scalar FinalTask.AP.wlan[0].mac packetSentToLower:sum(packetBytes) 913173788
attr interpolationmode none
attr title "packets sent to lower layer, sum(packetBytes)"
scalar FinalTask.AP.wlan[0].mac packetReceivedFromUpper:count 605365
attr interpolationmode none
attr title "packets received from upper layer, count"
scalar FinalTask.AP.wlan[0].mac packetReceivedFromUpper:sum(packetBytes) 902622756
attr interpolationmode none
attr title "packets received from upper layer, sum(packetBytes)"
scalar FinalTask.AP.wlan[0].mac packetSentToUpper:count 585605
attr interpolationmode none
attr title "packets sent to upper layer, count"
scalar FinalTask.AP.wlan[0].mac packetSentToUpper:sum(packetBytes) 98414510
attr interpolationmode none
attr title "packets sent to upper layer, sum(packetBytes)"
scalar FinalTask.AP.wlan[0].mac packetDrop:count 20939
attr interpolationmode none
attr source packetDropped
attr title "packet drops, count"
scalar FinalTask.AP.wlan[0].mac packetDrop:sum(packetBytes) 31454345
attr interpolationmode none
attr source packetDropped
attr title "packet drops, sum(packetBytes)"
scalar FinalTask.AP.wlan[0].mac packetDropIncorrectlyReceived:count 294
attr interpolationmode none
attr source packetDropReasonIsIncorrectlyReceived(packetDropped)
attr title "packet drops: incorrectly received, count"
scalar FinalTask.AP.wlan[0].mac packetDropIncorrectlyReceived:sum(packetBytes) 23872
attr interpolationmode none
attr source packetDropReasonIsIncorrectlyReceived(packetDropped)
attr title "packet drops: incorrectly received, sum(packetBytes)"
scalar FinalTask.AP.wlan[0].mac packetDropNotAddressedToUs:count 0
attr interpolationmode none
attr source packetDropReasonIsNotAddressedToUs(packetDropped)
attr title "packet drops: not addressed to us, count"
scalar FinalTask.AP.wlan[0].mac packetDropNotAddressedToUs:sum(packetBytes) 0
attr interpolationmode none
attr source packetDropReasonIsNotAddressedToUs(packetDropped)
attr title "packet drops: not addressed to us, sum(packetBytes)"
scalar FinalTask.AP.wlan[0].mac packetDropQueueOverflow:count 20645
attr interpolationmode none
attr source packetDropReasonIsQueueOverflow(packetDropped)
attr title "packet drops: queue overflow, count"
scalar FinalTask.AP.wlan[0].mac packetDropQueueOverflow:sum(packetBytes) 31430473
attr interpolationmode none
attr source packetDropReasonIsQueueOverflow(packetDropped)
attr title "packet drops: queue overflow, sum(packetBytes)"
scalar FinalTask.AP.wlan[0].mac packetDropRetryLimitReached:count 0
attr interpolationmode none
attr source packetDropReasonIsRetryLimitReached(packetDropped)
attr title "packet drops: retry limit reached, count"
scalar FinalTask.AP.wlan[0].mac packetDropRetryLimitReached:sum(packetBytes) 0
attr interpolationmode none
attr source packetDropReasonIsRetryLimitReached(packetDropped)
attr title "packet drops: retry limit reached, sum(packetBytes)"
scalar FinalTask.AP.wlan[0].mac packetDropDuplicateDetected:count 0
attr interpolationmode none
attr source packetDropReasonIsDuplicateDetected(packetDropped)
attr title "packet drops: duplicate detected, count"
scalar FinalTask.AP.wlan[0].mac packetDropDuplicateDetected:sum(packetBytes) 0
attr interpolationmode none
attr source packetDropReasonIsDuplicateDetected(packetDropped)
attr title "packet drops: duplicate detected, sum(packetBytes)"
scalar FinalTask.AP.wlan[0].mac packetDropOther:count 0
attr interpolationmode none
attr source packetDropReasonIsOther(packetDropped)
attr title "packet drops: other, count"
scalar FinalTask.AP.wlan[0].mac packetDropOther:sum(packetBytes) 0
attr interpolationmode none
attr source packetDropReasonIsOther(packetDropped)
attr title "packet drops: other, sum(packetBytes)"
scalar FinalTask.AP.wlan[0].mac linkBroken:count 0
attr interpolationmode none
attr title "link breaks, count"
statistic FinalTask.AP.wlan[0].radio radioChannel:histogram
field count 1
field mean 0
field stddev -nan
field min 0
field max 0
field sum 0
field sqrsum 0
attr interpolationmode sample-hold
attr source radioChannelChanged
attr title "Radio channel, histogram"
bin	-inf	0
bin	-0.5	0
bin	-0.48	0
bin	-0.46	0
bin	-0.44	0
bin	-0.42	0
bin	-0.4	0
bin	-0.38	0
bin	-0.36	0
bin	-0.34	0
bin	-0.32	0
bin	-0.3	0
bin	-0.28	0
bin	-0.26	0
bin	-0.24	0
bin	-0.22	0
bin	-0.2	0
bin	-0.18	0
bin	-0.16	0
bin	-0.14	0
bin	-0.12	0
bin	-0.1	0
bin	-0.08	0
bin	-0.06	0
bin	-0.04	0
bin	-0.02	0
bin	0	1
bin	0.02	0
bin	0.04	0
bin	0.06	0
bin	0.08	0
bin	0.1	0
bin	0.12	0
bin	0.14	0
bin	0.16	0
bin	0.18	0
bin	0.2	0
bin	0.22	0
bin	0.24	0
bin	0.26	0
bin	0.28	0
bin	0.3	0
bin	0.32	0
bin	0.34	0
bin	0.36	0
bin	0.38	0
bin	0.4	0
bin	0.42	0
bin	0.44	0
bin	0.46	0
bin	0.48	0
bin	0.5	0
scalar FinalTask.AP.wlan[0].radio radioMode:count 3441129
attr interpolationmode sample-hold
attr source radioModeChanged
attr title "Radio mode, count"
scalar FinalTask.AP.wlan[0].radio receptionState:count 6841573
attr interpolationmode sample-hold
attr source receptionStateChanged
attr title "Radio reception state, count"
scalar FinalTask.AP.wlan[0].radio transmissionState:count 6882252
attr interpolationmode sample-hold
attr source transmissionStateChanged
attr title "Radio transmission state, count"
statistic FinalTask.AP.wlan[0].radio minSnir:histogram
field count 1700072
field mean 675997.50851056
field stddev 2557466.7684272
field min 0.0036270785446637
field max 10927567.034074
field sum 1149244436288.6
field sqrsum 1.1896432422512e+19
attr source minimumSnir(packetSentToUpper)
attr title "Min SNIR, histogram"
bin	-inf	0
bin	0	1600468
bin	200000	0
bin	400000	0
bin	600000	0
bin	800000	0
bin	1000000	0
bin	1200000	0
bin	1400000	0
bin	1600000	0
bin	1800000	0
bin	2000000	0
bin	2200000	0
bin	2400000	0
bin	2600000	0
bin	2800000	0
bin	3000000	0
bin	3200000	0
bin	3400000	0
bin	3600000	0
bin	3800000	0
bin	4000000	0
bin	4200000	0
bin	4400000	0
bin	4600000	0
bin	4800000	0
bin	5000000	0
bin	5200000	0
bin	5400000	0
bin	5600000	0
bin	5800000	0
bin	6000000	0
bin	6200000	0
bin	6400000	0
bin	6600000	0
bin	6800000	0
bin	7000000	0
bin	7200000	0
bin	7400000	0
bin	7600000	0
bin	7800000	0
bin	8000000	0
bin	8200000	0
bin	8400000	0
bin	8600000	0
bin	8800000	0
bin	9000000	0
bin	9200000	0
bin	9400000	0
bin	9600000	0
bin	9800000	0
bin	10000000	0
bin	10200000	0
bin	10400000	0
bin	10600000	0
bin	10800000	99604
bin	11000000	0
bin	11200000	0
bin	11400000	0
bin	11600000	0
bin	11800000	0
bin	12000000	0
bin	12200000	0
bin	12400000	0
bin	12600000	0
bin	12800000	0
bin	13000000	0
bin	13200000	0
bin	13400000	0
bin	13600000	0
bin	13800000	0
statistic FinalTask.AP.wlan[0].radio packetErrorRate:histogram
field count 1700072
field mean 0.00017322803550169
field stddev 0.013149360696398
field min 0
field max 1
field sum 294.50013277143
field sqrsum 294.00295941399
attr source packetErrorRate(packetSentToUpper)
attr title "Packet error rate, histogram"
bin	-inf	0
bin	-0.5	0
bin	-0.48	0
bin	-0.46	0
bin	-0.44	0
bin	-0.42	0
bin	-0.4	0
bin	-0.38	0
bin	-0.36	0
bin	-0.34	0
bin	-0.32	0
bin	-0.3	0
bin	-0.28	0
bin	-0.26	0
bin	-0.24	0
bin	-0.22	0
bin	-0.2	0
bin	-0.18	0
bin	-0.16	0
bin	-0.14	0
bin	-0.12	0
bin	-0.1	0
bin	-0.08	0
bin	-0.06	0
bin	-0.04	0
bin	-0.02	0
bin	0	1699778
bin	0.02	0
bin	0.04	0
bin	0.06	0
bin	0.08	0
bin	0.1	0
bin	0.12	0
bin	0.14	0
bin	0.16	0
bin	0.18	0
bin	0.2	0
bin	0.22	0
bin	0.24	0
bin	0.26	0
bin	0.28	0
bin	0.3	0
bin	0.32	0
bin	0.34	0
bin	0.36	0
bin	0.38	0
bin	0.4	0
bin	0.42	0
bin	0.44	0
bin	0.46	0
bin	0.48	0
bin	0.5	0
bin	0.52	0
bin	0.54	0
bin	0.56	0
bin	0.58	0
bin	0.6	0
bin	0.62	0
bin	0.64	0
bin	0.66	0
bin	0.68	0
bin	0.7	0
bin	0.72	0
bin	0.74	0
bin	0.76	0
bin	0.78	0
bin	0.8	0
bin	0.82	0
bin	0.84	0
bin	0.86	0
bin	0.88	0
bin	0.9	0
bin	0.92	0
bin	0.94	0
bin	0.96	0
bin	0.98	0
bin	1	294
bin	1.02	0
statistic FinalTask.AP.wlan[0].radio bitErrorRate:histogram
field count 0
field mean -nan
field stddev -nan
field min -nan
field max -nan
field sum 0
field sqrsum 0
attr source bitErrorRate(packetSentToUpper)
attr title "Bit error rate, histogram"
bin	-inf	0
bin	0	0
bin	1	0
statistic FinalTask.AP.wlan[0].radio symbolErrorRate:histogram
field count 0
field mean -nan
field stddev -nan
field min -nan
field max -nan
field sum 0
field sqrsum 0
attr source symbolErrorRate(packetSentToUpper)
attr title "Symbol error rate, histogram"
bin	-inf	0
bin	0	0
bin	1	0
scalar FinalTask.AP.eth[0].mac.queue packetPopped:count 585605
attr interpolationmode none
attr title "packet popped, count"
scalar FinalTask.AP.eth[0].mac.queue packetPopped:sum(packetBytes) 107471086
attr interpolationmode none
attr title "packet popped, sum(packetBytes)"
statistic FinalTask.AP.eth[0].mac.queue queueingTime:histogram
field count 585605
field mean 0
field stddev 0
field min 0
field max 0
field sum 0
field sqrsum 0
attr interpolationmode none
attr source queueingTime(packetPopped)
attr title "queueing times, histogram"
attr unit s
bin	-inf	0
bin	-0.5	0
bin	-0.48	0
bin	-0.46	0
bin	-0.44	0
bin	-0.42	0
bin	-0.4	0
bin	-0.38	0
bin	-0.36	0
bin	-0.34	0
bin	-0.32	0
bin	-0.3	0
bin	-0.28	0
bin	-0.26	0
bin	-0.24	0
bin	-0.22	0
bin	-0.2	0
bin	-0.18	0
bin	-0.16	0
bin	-0.14	0
bin	-0.12	0
bin	-0.1	0
bin	-0.08	0
bin	-0.06	0
bin	-0.04	0
bin	-0.02	0
bin	0	585605
bin	0.02	0
bin	0.04	0
bin	0.06	0
bin	0.08	0
bin	0.1	0
bin	0.12	0
bin	0.14	0
bin	0.16	0
bin	0.18	0
bin	0.2	0
bin	0.22	0
bin	0.24	0
bin	0.26	0
bin	0.28	0
bin	0.3	0
bin	0.32	0
bin	0.34	0
bin	0.36	0
bin	0.38	0
bin	0.4	0
bin	0.42	0
bin	0.44	0
bin	0.46	0
bin	0.48	0
bin	0.5	0
scalar FinalTask.AP.eth[0].mac.queue queueLength:max 1
attr interpolationmode sample-hold
attr source "count(packetPushed) - count(packetPopped) - count(packetRemoved) - count(packetDropped)"
attr title "queue length, max"
scalar FinalTask.AP.eth[0].mac.queue queueLength:timeavg 0
attr interpolationmode sample-hold
attr source "count(packetPushed) - count(packetPopped) - count(packetRemoved) - count(packetDropped)"
attr title "queue length, timeavg"
scalar FinalTask.AP.eth[0].mac.queue packetPushed:count 585605
attr interpolationmode none
attr title "packet pushed, count"
scalar FinalTask.AP.eth[0].mac.queue packetPushed:sum(packetBytes) 107471086
attr interpolationmode none
attr title "packet pushed, sum(packetBytes)"
scalar FinalTask.AP.eth[0].mac.queue packetDropQueueOverflow:count 0
attr interpolationmode none
attr source packetDropReasonIsQueueOverflow(packetDropped)
attr title "packet drops: queue overflow, count"
scalar FinalTask.AP.eth[0].mac.queue packetDropQueueOverflow:sum(packetBytes) 0
attr interpolationmode none
attr source packetDropReasonIsQueueOverflow(packetDropped)
attr title "packet drops: queue overflow, sum(packetBytes)"
scalar FinalTask.AP.eth[0].mac.queue packetRemoved:count 0
attr interpolationmode none
attr title "packets removed, count"
scalar FinalTask.AP.eth[0].mac.queue packetRemoved:sum(packetBytes) 0
attr interpolationmode none
attr title "packets removed, sum(packetBytes)"
scalar FinalTask.AP.eth[0].mac "simulated time" 2000
scalar FinalTask.AP.eth[0].mac full-duplex 1
scalar FinalTask.AP.eth[0].mac "frames/sec sent" 292.8025
scalar FinalTask.AP.eth[0].mac "frames/sec rcvd" 302.6825
scalar FinalTask.AP.eth[0].mac "bits/sec sent" 429884.344
scalar FinalTask.AP.eth[0].mac "bits/sec rcvd" 3634705.624
scalar FinalTask.AP.eth[0].mac "rx channel idle (%)" 100
scalar FinalTask.AP.eth[0].mac "rx channel utilization (%)" 0
scalar FinalTask.AP.eth[0].mac rxPausePkUnits:count 0
attr interpolationmode none
attr title "pause units received, count"
scalar FinalTask.AP.eth[0].mac rxPausePkUnits:sum 0
attr interpolationmode none
attr title "pause units received, sum"
scalar FinalTask.AP.eth[0].mac txPausePkUnits:count 0
attr interpolationmode none
attr title "pause units sent, count"
scalar FinalTask.AP.eth[0].mac txPausePkUnits:sum 0
attr interpolationmode none
attr title "pause units sent, sum"
scalar FinalTask.AP.eth[0].mac rxPkOk:count 605365
attr interpolationmode none
attr source rxPkOk
attr title "packets received OK, count"
scalar FinalTask.AP.eth[0].mac rxPkOk:sum(packetBytes) 908676406
attr interpolationmode none
attr source rxPkOk
attr title "packets received OK, sum(packetBytes)"
scalar FinalTask.AP.eth[0].mac txPk:count 585605
attr interpolationmode none
attr source packetSentToLower
attr title "packets transmitted, count"
scalar FinalTask.AP.eth[0].mac txPk:sum(packetBytes) 107471086
attr interpolationmode none
attr source packetSentToLower
attr title "packets transmitted, sum(packetBytes)"
scalar FinalTask.AP.eth[0].mac packetReceivedFromUpper:count 585605
attr interpolationmode none
attr source packetReceivedFromUpper
attr title "packet bytes from higher layer, count"
scalar FinalTask.AP.eth[0].mac packetReceivedFromUpper:sum(packetBytes) 104270560
attr interpolationmode none
attr source packetReceivedFromUpper
attr title "packet bytes from higher layer, sum(packetBytes)"
scalar FinalTask.AP.eth[0].mac passedUpPk:count 605365
attr interpolationmode none
attr source packetSentToUpper
attr title "packets passed to higher layer, count"
scalar FinalTask.AP.eth[0].mac passedUpPk:sum(packetBytes) 908676406
attr interpolationmode none
attr source packetSentToUpper
attr title "packets passed to higher layer, sum(packetBytes)"
scalar FinalTask.AP.eth[0].mac packetDropIncorrectlyReceived:count 0
attr interpolationmode none
attr source packetDropReasonIsIncorrectlyReceived(packetDropped)
attr title "packet drop: incorrectly received, count"
scalar FinalTask.AP.eth[0].mac packetDropIncorrectlyReceived:sum(packetBytes) 0
attr interpolationmode none
attr source packetDropReasonIsIncorrectlyReceived(packetDropped)
attr title "packet drop: incorrectly received, sum(packetBytes)"
scalar FinalTask.AP.eth[0].mac packetDropInterfaceDown:count 0
attr interpolationmode none
attr source packetDropReasonIsInterfaceDown(packetDropped)
attr title "packet drop: interface down, count"
scalar FinalTask.AP.eth[0].mac packetDropInterfaceDown:sum(packetBytes) 0
attr interpolationmode none
attr source packetDropReasonIsInterfaceDown(packetDropped)
attr title "packet drop: interface down, sum(packetBytes)"
scalar FinalTask.AP.eth[0].mac packetDropNotAddressedToUs:count 0
attr interpolationmode none
attr source packetDropReasonIsNotAddressedToUs(packetDropped)
attr title "packet drop: not addressed to us, count"
scalar FinalTask.AP.eth[0].mac packetDropNotAddressedToUs:sum(packetBytes) 0
attr interpolationmode none
attr source packetDropReasonIsNotAddressedToUs(packetDropped)
attr title "packet drop: not addressed to us, sum(packetBytes)"
scalar FinalTask.DRouter.lo[0].lo rcvdPkFromHl:count 0
attr interpolationmode none
attr source packetReceivedFromUpper
attr title "packets received from higher layer, count"
scalar FinalTask.DRouter.lo[0].lo rcvdPkFromHl:sum(packetBytes) 0
attr interpolationmode none
attr source packetReceivedFromUpper
attr title "packets received from higher layer, sum(packetBytes)"
scalar FinalTask.DRouter.lo[0].lo passedUpPk:count 0
attr interpolationmode none
attr source packetSentToUpper
attr title "packets passed to higher layer, count"
scalar FinalTask.DRouter.lo[0].lo passedUpPk:sum(packetBytes) 0
attr interpolationmode none
attr source packetSentToUpper
attr title "packets passed to higher layer, sum(packetBytes)"
scalar FinalTask.DRouter.ppp[0].ppp.queue packetPopped:count 585520
attr interpolationmode none
attr title "packet popped, count"
scalar FinalTask.DRouter.ppp[0].ppp.queue packetPopped:sum(packetBytes) 93727290
attr interpolationmode none
attr title "packet popped, sum(packetBytes)"
statistic FinalTask.DRouter.ppp[0].ppp.queue queueingTime:histogram
field count 585520
field mean 1.3572600216406e-06
field stddev 1.5890805006011e-05
field min 0
field max 0.000268499756
field sum 0.794702887871
field sqrsum 0.00014893252012401
attr interpolationmode none
attr source queueingTime(packetPopped)
attr title "queueing times, histogram"
attr unit s
bin	-inf	0
bin	0	580276
bin	5e-06	210
bin	1e-05	4
bin	1.5e-05	0
bin	2e-05	20
bin	2.5e-05	260
bin	3e-05	4
bin	3.5e-05	2
bin	4e-05	12
bin	4.5e-05	253
bin	5e-05	1
bin	5.5e-05	0
bin	6e-05	18
bin	6.5e-05	306
bin	7e-05	3
bin	7.5e-05	0
bin	8e-05	14
bin	8.5e-05	294
bin	9e-05	2
bin	9.5e-05	0
bin	0.0001	7
bin	0.000105	348
bin	0.00011	1
bin	0.000115	0
bin	0.00012	7
bin	0.000125	369
bin	0.00013	0
bin	0.000135	0
bin	0.00014	0
bin	0.000145	412
bin	0.00015	1
bin	0.000155	0
bin	0.00016	0
bin	0.000165	431
bin	0.00017	1
bin	0.000175	0
bin	0.00018	2
bin	0.000185	470
bin	0.00019	0
bin	0.000195	0
bin	0.0002	0
bin	0.000205	510
bin	0.00021	0
bin	0.000215	0
bin	0.00022	1
bin	0.000225	595
bin	0.00023	0
bin	0.000235	0
bin	0.00024	1
bin	0.000245	670
bin	0.00025	0
bin	0.000255	0
bin	0.00026	0
bin	0.000265	15
bin	0.00027	0
bin	0.000275	0
bin	0.00028	0
bin	0.000285	0
bin	0.00029	0
scalar FinalTask.DRouter.ppp[0].ppp.queue queueLength:max 2
attr interpolationmode sample-hold
attr source "count(packetPushed) - count(packetPopped) - count(packetRemoved) - count(packetDropped)"
attr title "queue length, max"
scalar FinalTask.DRouter.ppp[0].ppp.queue queueLength:timeavg 0.00039746759317603
attr interpolationmode sample-hold
attr source "count(packetPushed) - count(packetPopped) - count(packetRemoved) - count(packetDropped)"
attr title "queue length, timeavg"
scalar FinalTask.DRouter.ppp[0].ppp.queue packetPushed:count 585520
attr interpolationmode none
attr title "packet pushed, count"
scalar FinalTask.DRouter.ppp[0].ppp.queue packetPushed:sum(packetBytes) 93727290
attr interpolationmode none
attr title "packet pushed, sum(packetBytes)"
scalar FinalTask.DRouter.ppp[0].ppp.queue packetDropQueueOverflow:count 0
attr interpolationmode none
attr source packetDropReasonIsQueueOverflow(packetDropped)
attr title "packet drops: queue overflow, count"
scalar FinalTask.DRouter.ppp[0].ppp.queue packetDropQueueOverflow:sum(packetBytes) 0
attr interpolationmode none
attr source packetDropReasonIsQueueOverflow(packetDropped)
attr title "packet drops: queue overflow, sum(packetBytes)"
scalar FinalTask.DRouter.ppp[0].ppp.queue packetRemoved:count 0
attr interpolationmode none
attr title "packets removed, count"
scalar FinalTask.DRouter.ppp[0].ppp.queue packetRemoved:sum(packetBytes) 0
attr interpolationmode none
attr title "packets removed, sum(packetBytes)"
scalar FinalTask.DRouter.ppp[0].ppp transmissionState:timeavg 0.0097825929999397
attr interpolationmode sample-hold
attr source transmissionStateChanged
attr title "tx state, timeavg"
scalar FinalTask.DRouter.ppp[0].ppp rxPkOk:count 605276
attr interpolationmode none
attr source rxPkOk
attr title "packets received OK, count"
scalar FinalTask.DRouter.ppp[0].ppp rxPkOk:sum(packetBytes) 901995417
attr interpolationmode none
attr source rxPkOk
attr title "packets received OK, sum(packetBytes)"
scalar FinalTask.DRouter.ppp[0].ppp txPk:count 585520
attr interpolationmode none
attr source packetSentToLower
attr title "packets transmitted, count"
scalar FinalTask.DRouter.ppp[0].ppp txPk:sum(packetBytes) 97825930
attr interpolationmode none
attr source packetSentToLower
attr title "packets transmitted, sum(packetBytes)"
scalar FinalTask.DRouter.ppp[0].ppp rcvdPkFromHl:count 585520
attr interpolationmode none
attr source packetReceivedFromUpper
attr title "packets received from higher layer, count"
scalar FinalTask.DRouter.ppp[0].ppp rcvdPkFromHl:sum(packetBytes) 93727290
attr interpolationmode none
attr source packetReceivedFromUpper
attr title "packets received from higher layer, sum(packetBytes)"
scalar FinalTask.DRouter.ppp[0].ppp passedUpPk:count 605276
attr interpolationmode none
attr source packetSentToUpper
attr title "packets passed to higher layer, count"
scalar FinalTask.DRouter.ppp[0].ppp passedUpPk:sum(packetBytes) 897758485
attr interpolationmode none
attr source packetSentToUpper
attr title "packets passed to higher layer, sum(packetBytes)"
scalar FinalTask.DRouter.ppp[0].ppp packetDropIncorrectlyReceived:count 0
attr interpolationmode none
attr source packetDropReasonIsIncorrectlyReceived(packetDropped)
attr title "packet drop: incorrectly received, count"
scalar FinalTask.DRouter.ppp[0].ppp packetDropIncorrectlyReceived:sum(packetBytes) 0
attr interpolationmode none
attr source packetDropReasonIsIncorrectlyReceived(packetDropped)
attr title "packet drop: incorrectly received, sum(packetBytes)"
scalar FinalTask.DRouter.ppp[0].ppp packetDropInterfaceDown:count 0
attr interpolationmode none
attr source packetDropReasonIsInterfaceDown(packetDropped)
attr title "packet drop: interface down, count"
scalar FinalTask.DRouter.ppp[0].ppp packetDropInterfaceDown:sum(packetBytes) 0
attr interpolationmode none
attr source packetDropReasonIsInterfaceDown(packetDropped)
attr title "packet drop: interface down, sum(packetBytes)"
scalar FinalTask.DRouter.eth[0].mac.queue packetPopped:count 605365
attr interpolationmode none
attr title "packet popped, count"
scalar FinalTask.DRouter.eth[0].mac.queue packetPopped:sum(packetBytes) 908676406
attr interpolationmode none
attr title "packet popped, sum(packetBytes)"
statistic FinalTask.DRouter.eth[0].mac.queue queueingTime:histogram
field count 605365
field mean 1.7954071208148e-06
field stddev 8.6841793907255e-05
field min 0
field max 0.009009257155
field sum 1.0868766316921
field sqrsum 0.0045673022782768
attr interpolationmode none
attr source queueingTime(packetPopped)
attr title "queueing times, histogram"
attr unit s
bin	-inf	0
bin	0	605088
bin	0.0002	23
bin	0.0004	7
bin	0.0006	15
bin	0.0008	12
bin	0.001	7
bin	0.0012	11
bin	0.0014	20
bin	0.0016	7
bin	0.0018	9
bin	0.002	6
bin	0.0022	10
bin	0.0024	9
bin	0.0026	6
bin	0.0028	11
bin	0.003	10
bin	0.0032	4
bin	0.0034	8
bin	0.0036	3
bin	0.0038	8
bin	0.004	6
bin	0.0042	3
bin	0.0044	6
bin	0.0046	4
bin	0.0048	2
bin	0.005	4
bin	0.0052	2
bin	0.0054	6
bin	0.0056	6
bin	0.0058	2
bin	0.006	6
bin	0.0062	4
bin	0.0064	2
bin	0.0066	6
bin	0.0068	4
bin	0.007	4
bin	0.0072	4
bin	0.0074	2
bin	0.0076	4
bin	0.0078	2
bin	0.008	1
bin	0.0082	4
bin	0.0084	1
bin	0.0086	2
bin	0.0088	2
bin	0.009	2
bin	0.0092	0
scalar FinalTask.DRouter.eth[0].mac.queue queueLength:max 74
attr interpolationmode sample-hold
attr source "count(packetPushed) - count(packetPopped) - count(packetRemoved) - count(packetDropped)"
attr title "queue length, max"
scalar FinalTask.DRouter.eth[0].mac.queue queueLength:timeavg 0.00054350134828175
attr interpolationmode sample-hold
attr source "count(packetPushed) - count(packetPopped) - count(packetRemoved) - count(packetDropped)"
attr title "queue length, timeavg"
scalar FinalTask.DRouter.eth[0].mac.queue packetPushed:count 605365
attr interpolationmode none
attr title "packet pushed, count"
scalar FinalTask.DRouter.eth[0].mac.queue packetPushed:sum(packetBytes) 908676406
attr interpolationmode none
attr title "packet pushed, sum(packetBytes)"
scalar FinalTask.DRouter.eth[0].mac.queue packetDropQueueOverflow:count 0
attr interpolationmode none
attr source packetDropReasonIsQueueOverflow(packetDropped)
attr title "packet drops: queue overflow, count"
scalar FinalTask.DRouter.eth[0].mac.queue packetDropQueueOverflow:sum(packetBytes) 0
attr interpolationmode none
attr source packetDropReasonIsQueueOverflow(packetDropped)
attr title "packet drops: queue overflow, sum(packetBytes)"
scalar FinalTask.DRouter.eth[0].mac.queue packetRemoved:count 0
attr interpolationmode none
attr title "packets removed, count"
scalar FinalTask.DRouter.eth[0].mac.queue packetRemoved:sum(packetBytes) 0
attr interpolationmode none
attr title "packets removed, sum(packetBytes)"
scalar FinalTask.DRouter.eth[0].mac "simulated time" 2000
scalar FinalTask.DRouter.eth[0].mac full-duplex 1
scalar FinalTask.DRouter.eth[0].mac "frames/sec sent" 302.6825
scalar FinalTask.DRouter.eth[0].mac "frames/sec rcvd" 292.8025
scalar FinalTask.DRouter.eth[0].mac "bits/sec sent" 3634705.624
scalar FinalTask.DRouter.eth[0].mac "bits/sec rcvd" 429884.344
scalar FinalTask.DRouter.eth[0].mac "rx channel idle (%)" 100
scalar FinalTask.DRouter.eth[0].mac "rx channel utilization (%)" 0
scalar FinalTask.DRouter.eth[0].mac rxPausePkUnits:count 0
attr interpolationmode none
attr title "pause units received, count"
scalar FinalTask.DRouter.eth[0].mac rxPausePkUnits:sum 0
attr interpolationmode none
attr title "pause units received, sum"
scalar FinalTask.DRouter.eth[0].mac txPausePkUnits:count 0
attr interpolationmode none
attr title "pause units sent, count"
scalar FinalTask.DRouter.eth[0].mac txPausePkUnits:sum 0
attr interpolationmode none
attr title "pause units sent, sum"
scalar FinalTask.DRouter.eth[0].mac rxPkOk:count 585605
attr interpolationmode none
attr source rxPkOk
attr title "packets received OK, count"
scalar FinalTask.DRouter.eth[0].mac rxPkOk:sum(packetBytes) 107471086
attr interpolationmode none
attr source rxPkOk
attr title "packets received OK, sum(packetBytes)"
scalar FinalTask.DRouter.eth[0].mac txPk:count 605365
attr interpolationmode none
attr source packetSentToLower
attr title "packets transmitted, count"
scalar FinalTask.DRouter.eth[0].mac txPk:sum(packetBytes) 908676406
attr interpolationmode none
attr source packetSentToLower
attr title "packets transmitted, sum(packetBytes)"
scalar FinalTask.DRouter.eth[0].mac packetReceivedFromUpper:count 605365
attr interpolationmode none
attr source packetReceivedFromUpper
attr title "packet bytes from higher layer, count"
scalar FinalTask.DRouter.eth[0].mac packetReceivedFromUpper:sum(packetBytes) 908657547
attr interpolationmode none
attr source packetReceivedFromUpper
attr title "packet bytes from higher layer, sum(packetBytes)"
scalar FinalTask.DRouter.eth[0].mac passedUpPk:count 585605
attr interpolationmode none
attr source packetSentToUpper
attr title "packets passed to higher layer, count"
scalar FinalTask.DRouter.eth[0].mac passedUpPk:sum(packetBytes) 107471086
attr interpolationmode none
attr source packetSentToUpper
attr title "packets passed to higher layer, sum(packetBytes)"
scalar FinalTask.DRouter.eth[0].mac packetDropIncorrectlyReceived:count 0
attr interpolationmode none
attr source packetDropReasonIsIncorrectlyReceived(packetDropped)
attr title "packet drop: incorrectly received, count"
scalar FinalTask.DRouter.eth[0].mac packetDropIncorrectlyReceived:sum(packetBytes) 0
attr interpolationmode none
attr source packetDropReasonIsIncorrectlyReceived(packetDropped)
attr title "packet drop: incorrectly received, sum(packetBytes)"
scalar FinalTask.DRouter.eth[0].mac packetDropInterfaceDown:count 0
attr interpolationmode none
attr source packetDropReasonIsInterfaceDown(packetDropped)
attr title "packet drop: interface down, count"
scalar FinalTask.DRouter.eth[0].mac packetDropInterfaceDown:sum(packetBytes) 0
attr interpolationmode none
attr source packetDropReasonIsInterfaceDown(packetDropped)
attr title "packet drop: interface down, sum(packetBytes)"
scalar FinalTask.DRouter.eth[0].mac packetDropNotAddressedToUs:count 0
attr interpolationmode none
attr source packetDropReasonIsNotAddressedToUs(packetDropped)
attr title "packet drop: not addressed to us, count"
scalar FinalTask.DRouter.eth[0].mac packetDropNotAddressedToUs:sum(packetBytes) 0
attr interpolationmode none
attr source packetDropReasonIsNotAddressedToUs(packetDropped)
attr title "packet drop: not addressed to us, sum(packetBytes)"
scalar FinalTask.DRouter.eth[0].encap pauseSent:count 0
attr title "pause sent, count"
scalar FinalTask.DRouter.eth[0].encap pauseSent:sum 0
attr title "pause sent, sum"
scalar FinalTask.DRouter.eth[0].encap decapPk:count 585605
attr interpolationmode none
attr source decapPk
attr title "packets decapsulated, count"
scalar FinalTask.DRouter.eth[0].encap decapPk:sum(packetBytes) 96930196
attr interpolationmode none
attr source decapPk
attr title "packets decapsulated, sum(packetBytes)"
scalar FinalTask.DRouter.eth[0].encap encapPk:count 605365
attr interpolationmode none
attr source encapPk
attr title "packets encapsulated, count"
scalar FinalTask.DRouter.eth[0].encap encapPk:sum(packetBytes) 897760977
attr interpolationmode none
attr source encapPk
attr title "packets encapsulated, sum(packetBytes)"
scalar FinalTask.DRouter.ipv4.ip packetDropAddressResolutionFailed:count 0
attr interpolationmode none
attr source packetDropReasonIsAddressResolutionFailed(packetDropped)
attr title "packet drop: address resolution failed, count"
scalar FinalTask.DRouter.ipv4.ip packetDropAddressResolutionFailed:sum(packetBytes) 0
attr interpolationmode none
attr source packetDropReasonIsAddressResolutionFailed(packetDropped)
attr title "packet drop: address resolution failed, sum(packetBytes)"
scalar FinalTask.DRouter.ipv4.ip packetDropHopLimitReached:count 0
attr interpolationmode none
attr source packetDropReasonIsHopLimitReached(packetDropped)
attr title "packet drop: hop limit reached, count"
scalar FinalTask.DRouter.ipv4.ip packetDropHopLimitReached:sum(packetBytes) 0
attr interpolationmode none
attr source packetDropReasonIsHopLimitReached(packetDropped)
attr title "packet drop: hop limit reached, sum(packetBytes)"
scalar FinalTask.DRouter.ipv4.ip packetDropForwardingDisabled:count 0
attr interpolationmode none
attr source packetDropReasonIsForwardingDisabled(packetDropped)
attr title "packet drop: forwarding disabled, count"
scalar FinalTask.DRouter.ipv4.ip packetDropForwardingDisabled:sum(packetBytes) 0
attr interpolationmode none
attr source packetDropReasonIsForwardingDisabled(packetDropped)
attr title "packet drop: forwarding disabled, sum(packetBytes)"
scalar FinalTask.DRouter.ipv4.ip packetDropNoInterfaceFound:count 0
attr interpolationmode none
attr source packetDropReasonIsNoInterfaceFound(packetDropped)
attr title "packet drop: no interface found, count"
scalar FinalTask.DRouter.ipv4.ip packetDropNoInterfaceFound:sum(packetBytes) 0
attr interpolationmode none
attr source packetDropReasonIsNoInterfaceFound(packetDropped)
attr title "packet drop: no interface found, sum(packetBytes)"
scalar FinalTask.DRouter.ipv4.ip packetDropNoRouteFound:count 0
attr interpolationmode none
attr source packetDropReasonIsNoRouteFound(packetDropped)
attr title "packet drop: no route found, count"
scalar FinalTask.DRouter.ipv4.ip packetDropNoRouteFound:sum(packetBytes) 0
attr interpolationmode none
attr source packetDropReasonIsNoRouteFound(packetDropped)
attr title "packet drop: no route found, sum(packetBytes)"
scalar FinalTask.DRouter.ipv4.ip packetDropUndefined:count 0
attr interpolationmode none
attr source packetDropReasonIsUndefined(packetDropped)
attr title "packet drop: undefined, count"
scalar FinalTask.DRouter.ipv4.ip packetDropUndefined:sum(packetBytes) 0
attr interpolationmode none
attr source packetDropReasonIsUndefined(packetDropped)
attr title "packet drop: undefined, sum(packetBytes)"
scalar FinalTask.DRouter.ipv4.arp arpResolutionFailed:count 0
attr title "ARP failed resolutions, count"
scalar FinalTask.DRouter.ipv4.arp arpResolutionCompleted:count 85
attr title "ARP completed resolutions, count"
scalar FinalTask.DRouter.ipv4.arp arpResolutionInitiated:count 81
attr title "ARP initiated resolutions, count"
scalar FinalTask.DRouter.ipv4.arp arpReplySent:count 5
attr source arpReplySent
attr title "ARP replies sent, count"
scalar FinalTask.DRouter.ipv4.arp arpReplySent:sum(packetBytes) 140
attr source arpReplySent
attr title "ARP replies sent, sum(packetBytes)"
scalar FinalTask.DRouter.ipv4.arp arpRequestSent:count 84
attr source arpRequestSent
attr title "ARP request sent, count"
scalar FinalTask.DRouter.ipv4.arp arpRequestSent:sum(packetBytes) 2352
attr source arpRequestSent
attr title "ARP request sent, sum(packetBytes)"
scalar FinalTask.DISPRouter.lo[0].lo rcvdPkFromHl:count 0
attr interpolationmode none
attr source packetReceivedFromUpper
attr title "packets received from higher layer, count"
scalar FinalTask.DISPRouter.lo[0].lo rcvdPkFromHl:sum(packetBytes) 0
attr interpolationmode none
attr source packetReceivedFromUpper
attr title "packets received from higher layer, sum(packetBytes)"
scalar FinalTask.DISPRouter.lo[0].lo passedUpPk:count 0
attr interpolationmode none
attr source packetSentToUpper
attr title "packets passed to higher layer, count"
scalar FinalTask.DISPRouter.lo[0].lo passedUpPk:sum(packetBytes) 0
attr interpolationmode none
attr source packetSentToUpper
attr title "packets passed to higher layer, sum(packetBytes)"
scalar FinalTask.DISPRouter.ppp[0].ppp.queue packetPopped:count 605276
attr interpolationmode none
attr title "packet popped, count"
scalar FinalTask.DISPRouter.ppp[0].ppp.queue packetPopped:sum(packetBytes) 897758485
attr interpolationmode none
attr title "packet popped, sum(packetBytes)"
statistic FinalTask.DISPRouter.ppp[0].ppp.queue queueingTime:histogram
field count 605276
field mean 7.577392520569e-07
field stddev 8.2665076538397e-06
field min 0
field max 0.0001968
field sum 0.458641383528
field sqrsum 4.1709087763383e-05
attr interpolationmode none
attr source queueingTime(packetPopped)
attr title "queueing times, histogram"
attr unit s
bin	-inf	0
bin	0	599060
bin	4e-06	210
bin	8e-06	141
bin	1.2e-05	143
bin	1.6e-05	125
bin	2e-05	150
bin	2.4e-05	185
bin	2.8e-05	142
bin	3.2e-05	142
bin	3.6e-05	152
bin	4e-05	150
bin	4.4e-05	214
bin	4.8e-05	178
bin	5.2e-05	172
bin	5.6e-05	164
bin	6e-05	163
bin	6.4e-05	215
bin	6.8e-05	148
bin	7.2e-05	163
bin	7.6e-05	184
bin	8e-05	168
bin	8.4e-05	229
bin	8.8e-05	159
bin	9.2e-05	148
bin	9.6e-05	153
bin	0.0001	192
bin	0.000104	244
bin	0.000108	474
bin	0.000112	1245
bin	0.000116	50
bin	0.00012	6
bin	0.000124	0
bin	0.000128	1
bin	0.000132	0
bin	0.000136	0
bin	0.00014	0
bin	0.000144	2
bin	0.000148	0
bin	0.000152	1
bin	0.000156	0
bin	0.00016	1
bin	0.000164	0
bin	0.000168	0
bin	0.000172	0
bin	0.000176	0
bin	0.00018	0
bin	0.000184	1
bin	0.000188	0
bin	0.000192	0
bin	0.000196	1
bin	0.0002	0
scalar FinalTask.DISPRouter.ppp[0].ppp.queue queueLength:max 2
attr interpolationmode sample-hold
attr source "count(packetPushed) - count(packetPopped) - count(packetRemoved) - count(packetDropped)"
attr title "queue length, max"
scalar FinalTask.DISPRouter.ppp[0].ppp.queue queueLength:timeavg 0.00022934727698364
attr interpolationmode sample-hold
attr source "count(packetPushed) - count(packetPopped) - count(packetRemoved) - count(packetDropped)"
attr title "queue length, timeavg"
scalar FinalTask.DISPRouter.ppp[0].ppp.queue packetPushed:count 605276
attr interpolationmode none
attr title "packet pushed, count"
scalar FinalTask.DISPRouter.ppp[0].ppp.queue packetPushed:sum(packetBytes) 897758485
attr interpolationmode none
attr title "packet pushed, sum(packetBytes)"
scalar FinalTask.DISPRouter.ppp[0].ppp.queue packetDropQueueOverflow:count 0
attr interpolationmode none
attr source packetDropReasonIsQueueOverflow(packetDropped)
attr title "packet drops: queue overflow, count"
scalar FinalTask.DISPRouter.ppp[0].ppp.queue packetDropQueueOverflow:sum(packetBytes) 0
attr interpolationmode none
attr source packetDropReasonIsQueueOverflow(packetDropped)
attr title "packet drops: queue overflow, sum(packetBytes)"
scalar FinalTask.DISPRouter.ppp[0].ppp.queue packetRemoved:count 0
attr interpolationmode none
attr title "packets removed, count"
scalar FinalTask.DISPRouter.ppp[0].ppp.queue packetRemoved:sum(packetBytes) 0
attr interpolationmode none
attr title "packets removed, sum(packetBytes)"
scalar FinalTask.DISPRouter.ppp[0].ppp transmissionState:timeavg 0.036079816679792
attr interpolationmode sample-hold
attr source transmissionStateChanged
attr title "tx state, timeavg"
scalar FinalTask.DISPRouter.ppp[0].ppp rxPkOk:count 585520
attr interpolationmode none
attr source rxPkOk
attr title "packets received OK, count"
scalar FinalTask.DISPRouter.ppp[0].ppp rxPkOk:sum(packetBytes) 97825930
attr interpolationmode none
attr source rxPkOk
attr title "packets received OK, sum(packetBytes)"
scalar FinalTask.DISPRouter.ppp[0].ppp txPk:count 605276
attr interpolationmode none
attr source packetSentToLower
attr title "packets transmitted, count"
scalar FinalTask.DISPRouter.ppp[0].ppp txPk:sum(packetBytes) 901995417
attr interpolationmode none
attr source packetSentToLower
attr title "packets transmitted, sum(packetBytes)"
scalar FinalTask.DISPRouter.ppp[0].ppp rcvdPkFromHl:count 605276
attr interpolationmode none
attr source packetReceivedFromUpper
attr title "packets received from higher layer, count"
scalar FinalTask.DISPRouter.ppp[0].ppp rcvdPkFromHl:sum(packetBytes) 897758485
attr interpolationmode none
attr source packetReceivedFromUpper
attr title "packets received from higher layer, sum(packetBytes)"
scalar FinalTask.DISPRouter.ppp[0].ppp passedUpPk:count 585520
attr interpolationmode none
attr source packetSentToUpper
attr title "packets passed to higher layer, count"
scalar FinalTask.DISPRouter.ppp[0].ppp passedUpPk:sum(packetBytes) 93727290
attr interpolationmode none
attr source packetSentToUpper
attr title "packets passed to higher layer, sum(packetBytes)"
scalar FinalTask.DISPRouter.ppp[0].ppp packetDropIncorrectlyReceived:count 0
attr interpolationmode none
attr source packetDropReasonIsIncorrectlyReceived(packetDropped)
attr title "packet drop: incorrectly received, count"
scalar FinalTask.DISPRouter.ppp[0].ppp packetDropIncorrectlyReceived:sum(packetBytes) 0
attr interpolationmode none
attr source packetDropReasonIsIncorrectlyReceived(packetDropped)
attr title "packet drop: incorrectly received, sum(packetBytes)"
scalar FinalTask.DISPRouter.ppp[0].ppp packetDropInterfaceDown:count 0
attr interpolationmode none
attr source packetDropReasonIsInterfaceDown(packetDropped)
attr title "packet drop: interface down, count"
scalar FinalTask.DISPRouter.ppp[0].ppp packetDropInterfaceDown:sum(packetBytes) 0
attr interpolationmode none
attr source packetDropReasonIsInterfaceDown(packetDropped)
attr title "packet drop: interface down, sum(packetBytes)"
scalar FinalTask.DISPRouter.eth[0].mac.queue packetPopped:count 535540
attr interpolationmode none
attr title "packet popped, count"
scalar FinalTask.DISPRouter.eth[0].mac.queue packetPopped:sum(packetBytes) 34568320
attr interpolationmode none
attr title "packet popped, sum(packetBytes)"
statistic FinalTask.DISPRouter.eth[0].mac.queue queueingTime:histogram
field count 535540
field mean 7.6092168652202e-08
field stddev 5.1949280585989e-06
field min 0
field max 0.0006384
field sum 0.0407504
field sqrsum 1.44558404096e-05
attr interpolationmode none
attr source queueingTime(packetPopped)
attr title "queueing times, histogram"
attr unit s
bin	-inf	0
bin	0	535345
bin	9.6e-06	6
bin	1.92e-05	10
bin	2.88e-05	5
bin	3.84e-05	10
bin	4.8e-05	5
bin	5.76e-05	10
bin	6.72e-05	5
bin	7.68e-05	5
bin	8.64e-05	10
bin	9.6e-05	5
bin	0.0001056	10
bin	0.0001152	5
bin	0.0001248	8
bin	0.0001344	4
bin	0.000144	3
bin	0.0001536	6
bin	0.0001632	3
bin	0.0001728	6
bin	0.0001824	3
bin	0.000192	6
bin	0.0002016	2
bin	0.0002112	2
bin	0.0002208	4
bin	0.0002304	2
bin	0.00024	2
bin	0.0002496	1
bin	0.0002592	2
bin	0.0002688	1
bin	0.0002784	1
bin	0.000288	2
bin	0.0002976	1
bin	0.0003072	2
bin	0.0003168	1
bin	0.0003264	2
bin	0.000336	1
bin	0.0003456	1
bin	0.0003552	2
bin	0.0003648	1
bin	0.0003744	2
bin	0.000384	1
bin	0.0003936	2
bin	0.0004032	1
bin	0.0004128	1
bin	0.0004224	2
bin	0.000432	1
bin	0.0004416	2
bin	0.0004512	1
bin	0.0004608	2
bin	0.0004704	1
bin	0.00048	1
bin	0.0004896	2
bin	0.0004992	1
bin	0.0005088	2
bin	0.0005184	1
bin	0.000528	2
bin	0.0005376	1
bin	0.0005472	1
bin	0.0005568	2
bin	0.0005664	1
bin	0.000576	2
bin	0.0005856	1
bin	0.0005952	2
bin	0.0006048	1
bin	0.0006144	1
bin	0.000624	2
bin	0.0006336	1
bin	0.0006432	0
scalar FinalTask.DISPRouter.eth[0].mac.queue queueLength:max 95
attr interpolationmode sample-hold
attr source "count(packetPushed) - count(packetPopped) - count(packetRemoved) - count(packetDropped)"
attr title "queue length, max"
scalar FinalTask.DISPRouter.eth[0].mac.queue queueLength:timeavg 2.0381155958123e-05
attr interpolationmode sample-hold
attr source "count(packetPushed) - count(packetPopped) - count(packetRemoved) - count(packetDropped)"
attr title "queue length, timeavg"
scalar FinalTask.DISPRouter.eth[0].mac.queue packetPushed:count 535540
attr interpolationmode none
attr title "packet pushed, count"
scalar FinalTask.DISPRouter.eth[0].mac.queue packetPushed:sum(packetBytes) 34568320
attr interpolationmode none
attr title "packet pushed, sum(packetBytes)"
scalar FinalTask.DISPRouter.eth[0].mac.queue packetDropQueueOverflow:count 0
attr interpolationmode none
attr source packetDropReasonIsQueueOverflow(packetDropped)
attr title "packet drops: queue overflow, count"
scalar FinalTask.DISPRouter.eth[0].mac.queue packetDropQueueOverflow:sum(packetBytes) 0
attr interpolationmode none
attr source packetDropReasonIsQueueOverflow(packetDropped)
attr title "packet drops: queue overflow, sum(packetBytes)"
scalar FinalTask.DISPRouter.eth[0].mac.queue packetRemoved:count 0
attr interpolationmode none
attr title "packets removed, count"
scalar FinalTask.DISPRouter.eth[0].mac.queue packetRemoved:sum(packetBytes) 0
attr interpolationmode none
attr title "packets removed, sum(packetBytes)"
scalar FinalTask.DISPRouter.eth[0].mac "simulated time" 2000
scalar FinalTask.DISPRouter.eth[0].mac full-duplex 1
scalar FinalTask.DISPRouter.eth[0].mac "frames/sec sent" 267.77
scalar FinalTask.DISPRouter.eth[0].mac "frames/sec rcvd" 277.6485
scalar FinalTask.DISPRouter.eth[0].mac "bits/sec sent" 138273.28
scalar FinalTask.DISPRouter.eth[0].mac "bits/sec rcvd" 3343099.368
scalar FinalTask.DISPRouter.eth[0].mac "rx channel idle (%)" 100
scalar FinalTask.DISPRouter.eth[0].mac "rx channel utilization (%)" 0
scalar FinalTask.DISPRouter.eth[0].mac rxPausePkUnits:count 0
attr interpolationmode none
attr title "pause units received, count"
scalar FinalTask.DISPRouter.eth[0].mac rxPausePkUnits:sum 0
attr interpolationmode none
attr title "pause units received, sum"
scalar FinalTask.DISPRouter.eth[0].mac txPausePkUnits:count 0
attr interpolationmode none
attr title "pause units sent, count"
scalar FinalTask.DISPRouter.eth[0].mac txPausePkUnits:sum 0
attr interpolationmode none
attr title "pause units sent, sum"
scalar FinalTask.DISPRouter.eth[0].mac rxPkOk:count 555297
attr interpolationmode none
attr source rxPkOk
attr title "packets received OK, count"
scalar FinalTask.DISPRouter.eth[0].mac rxPkOk:sum(packetBytes) 835774842
attr interpolationmode none
attr source rxPkOk
attr title "packets received OK, sum(packetBytes)"
scalar FinalTask.DISPRouter.eth[0].mac txPk:count 535540
attr interpolationmode none
attr source packetSentToLower
attr title "packets transmitted, count"
scalar FinalTask.DISPRouter.eth[0].mac txPk:sum(packetBytes) 34568320
attr interpolationmode none
attr source packetSentToLower
attr title "packets transmitted, sum(packetBytes)"
scalar FinalTask.DISPRouter.eth[0].mac packetReceivedFromUpper:count 535540
attr interpolationmode none
attr source packetReceivedFromUpper
attr title "packet bytes from higher layer, count"
scalar FinalTask.DISPRouter.eth[0].mac packetReceivedFromUpper:sum(packetBytes) 31368982
attr interpolationmode none
attr source packetReceivedFromUpper
attr title "packet bytes from higher layer, sum(packetBytes)"
scalar FinalTask.DISPRouter.eth[0].mac passedUpPk:count 555297
attr interpolationmode none
attr source packetSentToUpper
attr title "packets passed to higher layer, count"
scalar FinalTask.DISPRouter.eth[0].mac passedUpPk:sum(packetBytes) 835774842
attr interpolationmode none
attr source packetSentToUpper
attr title "packets passed to higher layer, sum(packetBytes)"
scalar FinalTask.DISPRouter.eth[0].mac packetDropIncorrectlyReceived:count 0
attr interpolationmode none
attr source packetDropReasonIsIncorrectlyReceived(packetDropped)
attr title "packet drop: incorrectly received, count"
scalar FinalTask.DISPRouter.eth[0].mac packetDropIncorrectlyReceived:sum(packetBytes) 0
attr interpolationmode none
attr source packetDropReasonIsIncorrectlyReceived(packetDropped)
attr title "packet drop: incorrectly received, sum(packetBytes)"
scalar FinalTask.DISPRouter.eth[0].mac packetDropInterfaceDown:count 0
attr interpolationmode none
attr source packetDropReasonIsInterfaceDown(packetDropped)
attr title "packet drop: interface down, count"
scalar FinalTask.DISPRouter.eth[0].mac packetDropInterfaceDown:sum(packetBytes) 0
attr interpolationmode none
attr source packetDropReasonIsInterfaceDown(packetDropped)
attr title "packet drop: interface down, sum(packetBytes)"
scalar FinalTask.DISPRouter.eth[0].mac packetDropNotAddressedToUs:count 0
attr interpolationmode none
attr source packetDropReasonIsNotAddressedToUs(packetDropped)
attr title "packet drop: not addressed to us, count"
scalar FinalTask.DISPRouter.eth[0].mac packetDropNotAddressedToUs:sum(packetBytes) 0
attr interpolationmode none
attr source packetDropReasonIsNotAddressedToUs(packetDropped)
attr title "packet drop: not addressed to us, sum(packetBytes)"
scalar FinalTask.DISPRouter.eth[0].encap pauseSent:count 0
attr title "pause sent, count"
scalar FinalTask.DISPRouter.eth[0].encap pauseSent:sum 0
attr title "pause sent, sum"
scalar FinalTask.DISPRouter.eth[0].encap decapPk:count 555297
attr interpolationmode none
attr source decapPk
attr title "packets decapsulated, count"
scalar FinalTask.DISPRouter.eth[0].encap decapPk:sum(packetBytes) 825779496
attr interpolationmode none
attr source decapPk
attr title "packets decapsulated, sum(packetBytes)"
scalar FinalTask.DISPRouter.eth[0].encap encapPk:count 535540
attr interpolationmode none
attr source encapPk
attr title "packets encapsulated, count"
scalar FinalTask.DISPRouter.eth[0].encap encapPk:sum(packetBytes) 21729262
attr interpolationmode none
attr source encapPk
attr title "packets encapsulated, sum(packetBytes)"
scalar FinalTask.DISPRouter.eth[1].mac.queue packetPopped:count 50017
attr interpolationmode none
attr title "packet popped, count"
scalar FinalTask.DISPRouter.eth[1].mac.queue packetPopped:sum(packetBytes) 72899694
attr interpolationmode none
attr title "packet popped, sum(packetBytes)"
statistic FinalTask.DISPRouter.eth[1].mac.queue queueingTime:histogram
field count 50017
field mean 1.0165183837495e-07
field stddev 5.1521349547768e-06
field min 0
field max 0.00035472
field sum 0.00508432
field sqrsum 1.328166272e-06
attr interpolationmode none
attr source queueingTime(packetPopped)
attr title "queueing times, histogram"
attr unit s
bin	-inf	0
bin	-0.5	0
bin	-0.48	0
bin	-0.46	0
bin	-0.44	0
bin	-0.42	0
bin	-0.4	0
bin	-0.38	0
bin	-0.36	0
bin	-0.34	0
bin	-0.32	0
bin	-0.3	0
bin	-0.28	0
bin	-0.26	0
bin	-0.24	0
bin	-0.22	0
bin	-0.2	0
bin	-0.18	0
bin	-0.16	0
bin	-0.14	0
bin	-0.12	0
bin	-0.1	0
bin	-0.08	0
bin	-0.06	0
bin	-0.04	0
bin	-0.02	0
bin	0	50017
bin	0.02	0
bin	0.04	0
bin	0.06	0
bin	0.08	0
bin	0.1	0
bin	0.12	0
bin	0.14	0
bin	0.16	0
bin	0.18	0
bin	0.2	0
bin	0.22	0
bin	0.24	0
bin	0.26	0
bin	0.28	0
bin	0.3	0
bin	0.32	0
bin	0.34	0
bin	0.36	0
bin	0.38	0
bin	0.4	0
bin	0.42	0
bin	0.44	0
bin	0.46	0
bin	0.48	0
bin	0.5	0
scalar FinalTask.DISPRouter.eth[1].mac.queue queueLength:max 3
attr interpolationmode sample-hold
attr source "count(packetPushed) - count(packetPopped) - count(packetRemoved) - count(packetDropped)"
attr title "queue length, max"
scalar FinalTask.DISPRouter.eth[1].mac.queue queueLength:timeavg 2.5423020011808e-06
attr interpolationmode sample-hold
attr source "count(packetPushed) - count(packetPopped) - count(packetRemoved) - count(packetDropped)"
attr title "queue length, timeavg"
scalar FinalTask.DISPRouter.eth[1].mac.queue packetPushed:count 50017
attr interpolationmode none
attr title "packet pushed, count"
scalar FinalTask.DISPRouter.eth[1].mac.queue packetPushed:sum(packetBytes) 72899694
attr interpolationmode none
attr title "packet pushed, sum(packetBytes)"
scalar FinalTask.DISPRouter.eth[1].mac.queue packetDropQueueOverflow:count 0
attr interpolationmode none
attr source packetDropReasonIsQueueOverflow(packetDropped)
attr title "packet drops: queue overflow, count"
scalar FinalTask.DISPRouter.eth[1].mac.queue packetDropQueueOverflow:sum(packetBytes) 0
attr interpolationmode none
attr source packetDropReasonIsQueueOverflow(packetDropped)
attr title "packet drops: queue overflow, sum(packetBytes)"
scalar FinalTask.DISPRouter.eth[1].mac.queue packetRemoved:count 0
attr interpolationmode none
attr title "packets removed, count"
scalar FinalTask.DISPRouter.eth[1].mac.queue packetRemoved:sum(packetBytes) 0
attr interpolationmode none
attr title "packets removed, sum(packetBytes)"
scalar FinalTask.DISPRouter.eth[1].mac "simulated time" 2000
scalar FinalTask.DISPRouter.eth[1].mac full-duplex 1
scalar FinalTask.DISPRouter.eth[1].mac "frames/sec sent" 25.0085
scalar FinalTask.DISPRouter.eth[1].mac "frames/sec rcvd" 25.008
scalar FinalTask.DISPRouter.eth[1].mac "bits/sec sent" 291598.776
scalar FinalTask.DISPRouter.eth[1].mac "bits/sec rcvd" 291592.944
scalar FinalTask.DISPRouter.eth[1].mac "rx channel idle (%)" 100
scalar FinalTask.DISPRouter.eth[1].mac "rx channel utilization (%)" 0
scalar FinalTask.DISPRouter.eth[1].mac rxPausePkUnits:count 0
attr interpolationmode none
attr title "pause units received, count"
scalar FinalTask.DISPRouter.eth[1].mac rxPausePkUnits:sum 0
attr interpolationmode none
attr title "pause units received, sum"
scalar FinalTask.DISPRouter.eth[1].mac txPausePkUnits:count 0
attr interpolationmode none
attr title "pause units sent, count"
scalar FinalTask.DISPRouter.eth[1].mac txPausePkUnits:sum 0
attr interpolationmode none
attr title "pause units sent, sum"
scalar FinalTask.DISPRouter.eth[1].mac rxPkOk:count 50016
attr interpolationmode none
attr source rxPkOk
attr title "packets received OK, count"
scalar FinalTask.DISPRouter.eth[1].mac rxPkOk:sum(packetBytes) 72898236
attr interpolationmode none
attr source rxPkOk
attr title "packets received OK, sum(packetBytes)"
scalar FinalTask.DISPRouter.eth[1].mac txPk:count 50017
attr interpolationmode none
attr source packetSentToLower
attr title "packets transmitted, count"
scalar FinalTask.DISPRouter.eth[1].mac txPk:sum(packetBytes) 72899694
attr interpolationmode none
attr source packetSentToLower
attr title "packets transmitted, sum(packetBytes)"
scalar FinalTask.DISPRouter.eth[1].mac packetReceivedFromUpper:count 50017
attr interpolationmode none
attr source packetReceivedFromUpper
attr title "packet bytes from higher layer, count"
scalar FinalTask.DISPRouter.eth[1].mac packetReceivedFromUpper:sum(packetBytes) 72899370
attr interpolationmode none
attr source packetReceivedFromUpper
attr title "packet bytes from higher layer, sum(packetBytes)"
scalar FinalTask.DISPRouter.eth[1].mac passedUpPk:count 50016
attr interpolationmode none
attr source packetSentToUpper
attr title "packets passed to higher layer, count"
scalar FinalTask.DISPRouter.eth[1].mac passedUpPk:sum(packetBytes) 72898236
attr interpolationmode none
attr source packetSentToUpper
attr title "packets passed to higher layer, sum(packetBytes)"
scalar FinalTask.DISPRouter.eth[1].mac packetDropIncorrectlyReceived:count 0
attr interpolationmode none
attr source packetDropReasonIsIncorrectlyReceived(packetDropped)
attr title "packet drop: incorrectly received, count"
scalar FinalTask.DISPRouter.eth[1].mac packetDropIncorrectlyReceived:sum(packetBytes) 0
attr interpolationmode none
attr source packetDropReasonIsIncorrectlyReceived(packetDropped)
attr title "packet drop: incorrectly received, sum(packetBytes)"
scalar FinalTask.DISPRouter.eth[1].mac packetDropInterfaceDown:count 0
attr interpolationmode none
attr source packetDropReasonIsInterfaceDown(packetDropped)
attr title "packet drop: interface down, count"
scalar FinalTask.DISPRouter.eth[1].mac packetDropInterfaceDown:sum(packetBytes) 0
attr interpolationmode none
attr source packetDropReasonIsInterfaceDown(packetDropped)
attr title "packet drop: interface down, sum(packetBytes)"
scalar FinalTask.DISPRouter.eth[1].mac packetDropNotAddressedToUs:count 0
attr interpolationmode none
attr source packetDropReasonIsNotAddressedToUs(packetDropped)
attr title "packet drop: not addressed to us, count"
scalar FinalTask.DISPRouter.eth[1].mac packetDropNotAddressedToUs:sum(packetBytes) 0
attr interpolationmode none
attr source packetDropReasonIsNotAddressedToUs(packetDropped)
attr title "packet drop: not addressed to us, sum(packetBytes)"
scalar FinalTask.DISPRouter.eth[1].encap pauseSent:count 0
attr title "pause sent, count"
scalar FinalTask.DISPRouter.eth[1].encap pauseSent:sum 0
attr title "pause sent, sum"
scalar FinalTask.DISPRouter.eth[1].encap decapPk:count 50016
attr interpolationmode none
attr source decapPk
attr title "packets decapsulated, count"
scalar FinalTask.DISPRouter.eth[1].encap decapPk:sum(packetBytes) 71997948
attr interpolationmode none
attr source decapPk
attr title "packets decapsulated, sum(packetBytes)"
scalar FinalTask.DISPRouter.eth[1].encap encapPk:count 50017
attr interpolationmode none
attr source encapPk
attr title "packets encapsulated, count"
scalar FinalTask.DISPRouter.eth[1].encap encapPk:sum(packetBytes) 71999064
attr interpolationmode none
attr source encapPk
attr title "packets encapsulated, sum(packetBytes)"
scalar FinalTask.DISPRouter.ipv4.ip packetDropAddressResolutionFailed:count 0
attr interpolationmode none
attr source packetDropReasonIsAddressResolutionFailed(packetDropped)
attr title "packet drop: address resolution failed, count"
scalar FinalTask.DISPRouter.ipv4.ip packetDropAddressResolutionFailed:sum(packetBytes) 0
attr interpolationmode none
attr source packetDropReasonIsAddressResolutionFailed(packetDropped)
attr title "packet drop: address resolution failed, sum(packetBytes)"
scalar FinalTask.DISPRouter.ipv4.ip packetDropHopLimitReached:count 0
attr interpolationmode none
attr source packetDropReasonIsHopLimitReached(packetDropped)
attr title "packet drop: hop limit reached, count"
scalar FinalTask.DISPRouter.ipv4.ip packetDropHopLimitReached:sum(packetBytes) 0
attr interpolationmode none
attr source packetDropReasonIsHopLimitReached(packetDropped)
attr title "packet drop: hop limit reached, sum(packetBytes)"
scalar FinalTask.DISPRouter.ipv4.ip packetDropForwardingDisabled:count 0
attr interpolationmode none
attr source packetDropReasonIsForwardingDisabled(packetDropped)
attr title "packet drop: forwarding disabled, count"
scalar FinalTask.DISPRouter.ipv4.ip packetDropForwardingDisabled:sum(packetBytes) 0
attr interpolationmode none
attr source packetDropReasonIsForwardingDisabled(packetDropped)
attr title "packet drop: forwarding disabled, sum(packetBytes)"
scalar FinalTask.DISPRouter.ipv4.ip packetDropNoInterfaceFound:count 0
attr interpolationmode none
attr source packetDropReasonIsNoInterfaceFound(packetDropped)
attr title "packet drop: no interface found, count"
scalar FinalTask.DISPRouter.ipv4.ip packetDropNoInterfaceFound:sum(packetBytes) 0
attr interpolationmode none
attr source packetDropReasonIsNoInterfaceFound(packetDropped)
attr title "packet drop: no interface found, sum(packetBytes)"
scalar FinalTask.DISPRouter.ipv4.ip packetDropNoRouteFound:count 0
attr interpolationmode none
attr source packetDropReasonIsNoRouteFound(packetDropped)
attr title "packet drop: no route found, count"
scalar FinalTask.DISPRouter.ipv4.ip packetDropNoRouteFound:sum(packetBytes) 0
attr interpolationmode none
attr source packetDropReasonIsNoRouteFound(packetDropped)
attr title "packet drop: no route found, sum(packetBytes)"
scalar FinalTask.DISPRouter.ipv4.ip packetDropUndefined:count 0
attr interpolationmode none
attr source packetDropReasonIsUndefined(packetDropped)
attr title "packet drop: undefined, count"
scalar FinalTask.DISPRouter.ipv4.ip packetDropUndefined:sum(packetBytes) 0
attr interpolationmode none
attr source packetDropReasonIsUndefined(packetDropped)
attr title "packet drop: undefined, sum(packetBytes)"
scalar FinalTask.DISPRouter.ipv4.arp arpResolutionFailed:count 0
attr title "ARP failed resolutions, count"
scalar FinalTask.DISPRouter.ipv4.arp arpResolutionCompleted:count 37
attr title "ARP completed resolutions, count"
scalar FinalTask.DISPRouter.ipv4.arp arpResolutionInitiated:count 19
attr title "ARP initiated resolutions, count"
scalar FinalTask.DISPRouter.ipv4.arp arpReplySent:count 18
attr source arpReplySent
attr title "ARP replies sent, count"
scalar FinalTask.DISPRouter.ipv4.arp arpReplySent:sum(packetBytes) 504
attr source arpReplySent
attr title "ARP replies sent, sum(packetBytes)"
scalar FinalTask.DISPRouter.ipv4.arp arpRequestSent:count 19
attr source arpRequestSent
attr title "ARP request sent, count"
scalar FinalTask.DISPRouter.ipv4.arp arpRequestSent:sum(packetBytes) 532
attr source arpRequestSent
attr title "ARP request sent, sum(packetBytes)"
scalar FinalTask.HTTPServer.lo[0].lo rcvdPkFromHl:count 0
attr interpolationmode none
attr source packetReceivedFromUpper
attr title "packets received from higher layer, count"
scalar FinalTask.HTTPServer.lo[0].lo rcvdPkFromHl:sum(packetBytes) 0
attr interpolationmode none
attr source packetReceivedFromUpper
attr title "packets received from higher layer, sum(packetBytes)"
scalar FinalTask.HTTPServer.lo[0].lo passedUpPk:count 0
attr interpolationmode none
attr source packetSentToUpper
attr title "packets passed to higher layer, count"
scalar FinalTask.HTTPServer.lo[0].lo passedUpPk:sum(packetBytes) 0
attr interpolationmode none
attr source packetSentToUpper
attr title "packets passed to higher layer, sum(packetBytes)"
scalar FinalTask.HTTPServer.eth[0].mac.queue packetPopped:count 555298
attr interpolationmode none
attr title "packet popped, count"
scalar FinalTask.HTTPServer.eth[0].mac.queue packetPopped:sum(packetBytes) 835774908
attr interpolationmode none
attr title "packet popped, sum(packetBytes)"
statistic FinalTask.HTTPServer.eth[0].mac.queue queueingTime:histogram
field count 555298
field mean 0.00010067335960487
field stddev 0.00070077611702043
field min 0
field max 0.02940656
field sum 55.903715241865
field sqrsum 0.27832724494951
attr interpolationmode none
attr source queueingTime(packetPopped)
attr title "queueing times, histogram"
attr unit s
bin	-inf	0
bin	0	553029
bin	0.00064	142
bin	0.00128	122
bin	0.00192	108
bin	0.00256	113
bin	0.0032	100
bin	0.00384	91
bin	0.00448	87
bin	0.00512	90
bin	0.00576	102
bin	0.0064	88
bin	0.00704	85
bin	0.00768	79
bin	0.00832	72
bin	0.00896	79
bin	0.0096	65
bin	0.01024	66
bin	0.01088	65
bin	0.01152	60
bin	0.01216	65
bin	0.0128	56
bin	0.01344	51
bin	0.01408	50
bin	0.01472	47
bin	0.01536	44
bin	0.016	36
bin	0.01664	35
bin	0.01728	30
bin	0.01792	27
bin	0.01856	29
bin	0.0192	26
bin	0.01984	26
bin	0.02048	27
bin	0.02112	20
bin	0.02176	21
bin	0.0224	13
bin	0.02304	5
bin	0.02368	5
bin	0.02432	5
bin	0.02496	6
bin	0.0256	5
bin	0.02624	5
bin	0.02688	5
bin	0.02752	5
bin	0.02816	6
bin	0.0288	5
bin	0.02944	0
scalar FinalTask.HTTPServer.eth[0].mac.queue queueLength:max 239
attr interpolationmode sample-hold
attr source "count(packetPushed) - count(packetPopped) - count(packetRemoved) - count(packetDropped)"
attr title "queue length, max"
scalar FinalTask.HTTPServer.eth[0].mac.queue queueLength:timeavg 0.027960867494615
attr interpolationmode sample-hold
attr source "count(packetPushed) - count(packetPopped) - count(packetRemoved) - count(packetDropped)"
attr title "queue length, timeavg"
scalar FinalTask.HTTPServer.eth[0].mac.queue packetPushed:count 555298
attr interpolationmode none
attr title "packet pushed, count"
scalar FinalTask.HTTPServer.eth[0].mac.queue packetPushed:sum(packetBytes) 835774908
attr interpolationmode none
attr title "packet pushed, sum(packetBytes)"
scalar FinalTask.HTTPServer.eth[0].mac.queue packetDropQueueOverflow:count 0
attr interpolationmode none
[...]
attr interpolationmode none
attr source packetDropReasonIsQueueOverflow(packetDropped)
attr title "packet drops: queue overflow, sum(packetBytes)"
scalar FinalTask.Client[3].wlan[0].mac.dcf packetDropRetryLimitReached:count 0
attr interpolationmode none
attr source packetDropReasonIsRetryLimitReached(packetDropped)
attr title "packet drops: retry limit reached, count"
scalar FinalTask.Client[3].wlan[0].mac.dcf packetDropRetryLimitReached:sum(packetBytes) 0
attr interpolationmode none
attr source packetDropReasonIsRetryLimitReached(packetDropped)
attr title "packet drops: retry limit reached, sum(packetBytes)"
scalar FinalTask.Client[3].wlan[0].mac.dcf linkBroken:count 0
attr interpolationmode none
attr title "link breaks, count"
scalar FinalTask.Client[3].wlan[0].mac packetReceivedFromLower:count 3006589
attr interpolationmode none
attr title "packets received from lower layer, count"
scalar FinalTask.Client[3].wlan[0].mac packetReceivedFromLower:sum(packetBytes) 1028635255
attr interpolationmode none
attr title "packets received from lower layer, sum(packetBytes)"
scalar FinalTask.Client[3].wlan[0].mac packetSentToLower:count 414046
attr interpolationmode none
attr title "packets sent to lower layer, count"
scalar FinalTask.Client[3].wlan[0].mac packetSentToLower:sum(packetBytes) 14484770
attr interpolationmode none
attr title "packets sent to lower layer, sum(packetBytes)"
scalar FinalTask.Client[3].wlan[0].mac packetReceivedFromUpper:count 138497
attr interpolationmode none
attr title "packets received from upper layer, count"
scalar FinalTask.Client[3].wlan[0].mac packetReceivedFromUpper:sum(packetBytes) 6727578
attr interpolationmode none
attr title "packets received from upper layer, sum(packetBytes)"
scalar FinalTask.Client[3].wlan[0].mac packetSentToUpper:count 138365
attr interpolationmode none
attr title "packets sent to upper layer, count"
scalar FinalTask.Client[3].wlan[0].mac packetSentToUpper:sum(packetBytes) 206790662
attr interpolationmode none
attr title "packets sent to upper layer, sum(packetBytes)"
scalar FinalTask.Client[3].wlan[0].mac packetDrop:count 2572799
attr interpolationmode none
attr source packetDropped
attr title "packet drops, count"
scalar FinalTask.Client[3].wlan[0].mac packetDrop:sum(packetBytes) 811236085
attr interpolationmode none
attr source packetDropped
attr title "packet drops, sum(packetBytes)"
scalar FinalTask.Client[3].wlan[0].mac packetDropIncorrectlyReceived:count 926
attr interpolationmode none
attr source packetDropReasonIsIncorrectlyReceived(packetDropped)
attr title "packet drops: incorrectly received, count"
scalar FinalTask.Client[3].wlan[0].mac packetDropIncorrectlyReceived:sum(packetBytes) 907498
attr interpolationmode none
attr source packetDropReasonIsIncorrectlyReceived(packetDropped)
attr title "packet drops: incorrectly received, sum(packetBytes)"
scalar FinalTask.Client[3].wlan[0].mac packetDropNotAddressedToUs:count 2571871
attr interpolationmode none
attr source packetDropReasonIsNotAddressedToUs(packetDropped)
attr title "packet drops: not addressed to us, count"
scalar FinalTask.Client[3].wlan[0].mac packetDropNotAddressedToUs:sum(packetBytes) 810328497
attr interpolationmode none
attr source packetDropReasonIsNotAddressedToUs(packetDropped)
attr title "packet drops: not addressed to us, sum(packetBytes)"
scalar FinalTask.Client[3].wlan[0].mac packetDropQueueOverflow:count 0
attr interpolationmode none
attr source packetDropReasonIsQueueOverflow(packetDropped)
attr title "packet drops: queue overflow, count"
scalar FinalTask.Client[3].wlan[0].mac packetDropQueueOverflow:sum(packetBytes) 0
attr interpolationmode none
attr source packetDropReasonIsQueueOverflow(packetDropped)
attr title "packet drops: queue overflow, sum(packetBytes)"
scalar FinalTask.Client[3].wlan[0].mac packetDropRetryLimitReached:count 0
attr interpolationmode none
attr source packetDropReasonIsRetryLimitReached(packetDropped)
attr title "packet drops: retry limit reached, count"
scalar FinalTask.Client[3].wlan[0].mac packetDropRetryLimitReached:sum(packetBytes) 0
attr interpolationmode none
attr source packetDropReasonIsRetryLimitReached(packetDropped)
attr title "packet drops: retry limit reached, sum(packetBytes)"
scalar FinalTask.Client[3].wlan[0].mac packetDropDuplicateDetected:count 0
attr interpolationmode none
attr source packetDropReasonIsDuplicateDetected(packetDropped)
attr title "packet drops: duplicate detected, count"
scalar FinalTask.Client[3].wlan[0].mac packetDropDuplicateDetected:sum(packetBytes) 0
attr interpolationmode none
attr source packetDropReasonIsDuplicateDetected(packetDropped)
attr title "packet drops: duplicate detected, sum(packetBytes)"
scalar FinalTask.Client[3].wlan[0].mac packetDropOther:count 2
attr interpolationmode none
attr source packetDropReasonIsOther(packetDropped)
attr title "packet drops: other, count"
scalar FinalTask.Client[3].wlan[0].mac packetDropOther:sum(packetBytes) 90
attr interpolationmode none
attr source packetDropReasonIsOther(packetDropped)
attr title "packet drops: other, sum(packetBytes)"
scalar FinalTask.Client[3].wlan[0].mac linkBroken:count 0
attr interpolationmode none
attr title "link breaks, count"
statistic FinalTask.Client[3].wlan[0].radio radioChannel:histogram
field count 4
field mean 0
field stddev 0
field min 0
field max 0
field sum 0
field sqrsum 0
attr interpolationmode sample-hold
attr source radioChannelChanged
attr title "Radio channel, histogram"
bin	-inf	0
bin	-0.5	0
bin	-0.48	0
bin	-0.46	0
bin	-0.44	0
bin	-0.42	0
bin	-0.4	0
bin	-0.38	0
bin	-0.36	0
bin	-0.34	0
bin	-0.32	0
bin	-0.3	0
bin	-0.28	0
bin	-0.26	0
bin	-0.24	0
bin	-0.22	0
bin	-0.2	0
bin	-0.18	0
bin	-0.16	0
bin	-0.14	0
bin	-0.12	0
bin	-0.1	0
bin	-0.08	0
bin	-0.06	0
bin	-0.04	0
bin	-0.02	0
bin	0	4
bin	0.02	0
bin	0.04	0
bin	0.06	0
bin	0.08	0
bin	0.1	0
bin	0.12	0
bin	0.14	0
bin	0.16	0
bin	0.18	0
bin	0.2	0
bin	0.22	0
bin	0.24	0
bin	0.26	0
bin	0.28	0
bin	0.3	0
bin	0.32	0
bin	0.34	0
bin	0.36	0
bin	0.38	0
bin	0.4	0
bin	0.42	0
bin	0.44	0
bin	0.46	0
bin	0.48	0
bin	0.5	0
scalar FinalTask.Client[3].wlan[0].radio radioMode:count 828095
attr interpolationmode sample-hold
attr source radioModeChanged
attr title "Radio mode, count"
scalar FinalTask.Client[3].wlan[0].radio receptionState:count 6842097
attr interpolationmode sample-hold
attr source receptionStateChanged
attr title "Radio reception state, count"
scalar FinalTask.Client[3].wlan[0].radio transmissionState:count 1656184
attr interpolationmode sample-hold
attr source transmissionStateChanged
attr title "Radio transmission state, count"
statistic FinalTask.Client[3].wlan[0].radio minSnir:histogram
field count 3006589
field mean 34303.688643311
field stddev 50877.968660019
field min 0.11006671773954
field max 166108.94375652
field sum 103137092934.41
field sqrsum 1.1320739292482e+16
attr source minimumSnir(packetSentToUpper)
attr title "Min SNIR, histogram"
bin	-inf	0
bin	0	926
bin	2000	0
bin	4000	0
bin	6000	799469
bin	8000	0
bin	10000	0
bin	12000	0
bin	14000	0
bin	16000	0
bin	18000	1819407
bin	20000	0
bin	22000	0
bin	24000	0
bin	26000	0
bin	28000	0
bin	30000	0
bin	32000	0
bin	34000	0
bin	36000	0
bin	38000	0
bin	40000	0
bin	42000	0
bin	44000	0
bin	46000	0
bin	48000	0
bin	50000	0
bin	52000	0
bin	54000	0
bin	56000	0
bin	58000	0
bin	60000	0
bin	62000	0
bin	64000	0
bin	66000	0
bin	68000	0
bin	70000	0
bin	72000	0
bin	74000	0
bin	76000	0
bin	78000	0
bin	80000	0
bin	82000	0
bin	84000	0
bin	86000	0
bin	88000	0
bin	90000	0
bin	92000	0
bin	94000	0
bin	96000	0
bin	98000	0
bin	100000	0
bin	102000	0
bin	104000	0
bin	106000	0
bin	108000	0
bin	110000	0
bin	112000	0
bin	114000	0
bin	116000	0
bin	118000	0
bin	120000	0
bin	122000	0
bin	124000	0
bin	126000	0
bin	128000	0
bin	130000	0
bin	132000	0
bin	134000	0
bin	136000	0
bin	138000	0
bin	140000	0
bin	142000	0
bin	144000	0
bin	146000	0
bin	148000	0
bin	150000	0
bin	152000	0
bin	154000	0
bin	156000	0
bin	158000	0
bin	160000	0
bin	162000	0
bin	164000	0
bin	166000	386787
bin	168000	0
bin	170000	0
bin	172000	0
bin	174000	0
bin	176000	0
bin	178000	0
bin	180000	0
bin	182000	0
bin	184000	0
bin	186000	0
bin	188000	0
bin	190000	0
bin	192000	0
bin	194000	0
bin	196000	0
bin	198000	0
bin	200000	0
bin	202000	0
bin	204000	0
bin	206000	0
statistic FinalTask.Client[3].wlan[0].radio packetErrorRate:histogram
field count 3006589
field mean 0.00030799021748566
field stddev 0.017546950217018
field min 0
field max 1
field sum 926
field sqrsum 926
attr source packetErrorRate(packetSentToUpper)
attr title "Packet error rate, histogram"
bin	-inf	0
bin	-0.5	0
bin	-0.48	0
bin	-0.46	0
bin	-0.44	0
bin	-0.42	0
bin	-0.4	0
bin	-0.38	0
bin	-0.36	0
bin	-0.34	0
bin	-0.32	0
bin	-0.3	0
bin	-0.28	0
bin	-0.26	0
bin	-0.24	0
bin	-0.22	0
bin	-0.2	0
bin	-0.18	0
bin	-0.16	0
bin	-0.14	0
bin	-0.12	0
bin	-0.1	0
bin	-0.08	0
bin	-0.06	0
bin	-0.04	0
bin	-0.02	0
bin	0	3005663
bin	0.02	0
bin	0.04	0
bin	0.06	0
bin	0.08	0
bin	0.1	0
bin	0.12	0
bin	0.14	0
bin	0.16	0
bin	0.18	0
bin	0.2	0
bin	0.22	0
bin	0.24	0
bin	0.26	0
bin	0.28	0
bin	0.3	0
bin	0.32	0
bin	0.34	0
bin	0.36	0
bin	0.38	0
bin	0.4	0
bin	0.42	0
bin	0.44	0
bin	0.46	0
bin	0.48	0
bin	0.5	0
bin	0.52	0
bin	0.54	0
bin	0.56	0
bin	0.58	0
bin	0.6	0
bin	0.62	0
bin	0.64	0
bin	0.66	0
bin	0.68	0
bin	0.7	0
bin	0.72	0
bin	0.74	0
bin	0.76	0
bin	0.78	0
bin	0.8	0
bin	0.82	0
bin	0.84	0
bin	0.86	0
bin	0.88	0
bin	0.9	0
bin	0.92	0
bin	0.94	0
bin	0.96	0
bin	0.98	0
bin	1	926
bin	1.02	0
statistic FinalTask.Client[3].wlan[0].radio bitErrorRate:histogram
field count 0
field mean -nan
field stddev -nan
field min -nan
field max -nan
field sum 0
field sqrsum 0
attr source bitErrorRate(packetSentToUpper)
attr title "Bit error rate, histogram"
bin	-inf	0
bin	0	0
bin	1	0
statistic FinalTask.Client[3].wlan[0].radio symbolErrorRate:histogram
field count 0
field mean -nan
field stddev -nan
field min -nan
field max -nan
field sum 0
field sqrsum 0
attr source symbolErrorRate(packetSentToUpper)
attr title "Symbol error rate, histogram"
bin	-inf	0
bin	0	0
bin	1	0
scalar FinalTask.Client[3].ipv4.ip packetDropAddressResolutionFailed:count 0
attr interpolationmode none
attr source packetDropReasonIsAddressResolutionFailed(packetDropped)
attr title "packet drop: address resolution failed, count"
scalar FinalTask.Client[3].ipv4.ip packetDropAddressResolutionFailed:sum(packetBytes) 0
attr interpolationmode none
attr source packetDropReasonIsAddressResolutionFailed(packetDropped)
attr title "packet drop: address resolution failed, sum(packetBytes)"
scalar FinalTask.Client[3].ipv4.ip packetDropHopLimitReached:count 0
attr interpolationmode none
attr source packetDropReasonIsHopLimitReached(packetDropped)
attr title "packet drop: hop limit reached, count"
scalar FinalTask.Client[3].ipv4.ip packetDropHopLimitReached:sum(packetBytes) 0
attr interpolationmode none
attr source packetDropReasonIsHopLimitReached(packetDropped)
attr title "packet drop: hop limit reached, sum(packetBytes)"
scalar FinalTask.Client[3].ipv4.ip packetDropForwardingDisabled:count 0
attr interpolationmode none
attr source packetDropReasonIsForwardingDisabled(packetDropped)
attr title "packet drop: forwarding disabled, count"
scalar FinalTask.Client[3].ipv4.ip packetDropForwardingDisabled:sum(packetBytes) 0
attr interpolationmode none
attr source packetDropReasonIsForwardingDisabled(packetDropped)
attr title "packet drop: forwarding disabled, sum(packetBytes)"
scalar FinalTask.Client[3].ipv4.ip packetDropNoInterfaceFound:count 0
attr interpolationmode none
attr source packetDropReasonIsNoInterfaceFound(packetDropped)
attr title "packet drop: no interface found, count"
scalar FinalTask.Client[3].ipv4.ip packetDropNoInterfaceFound:sum(packetBytes) 0
attr interpolationmode none
attr source packetDropReasonIsNoInterfaceFound(packetDropped)
attr title "packet drop: no interface found, sum(packetBytes)"
scalar FinalTask.Client[3].ipv4.ip packetDropNoRouteFound:count 0
attr interpolationmode none
attr source packetDropReasonIsNoRouteFound(packetDropped)
attr title "packet drop: no route found, count"
scalar FinalTask.Client[3].ipv4.ip packetDropNoRouteFound:sum(packetBytes) 0
attr interpolationmode none
attr source packetDropReasonIsNoRouteFound(packetDropped)
attr title "packet drop: no route found, sum(packetBytes)"
scalar FinalTask.Client[3].ipv4.ip packetDropUndefined:count 0
attr interpolationmode none
attr source packetDropReasonIsUndefined(packetDropped)
attr title "packet drop: undefined, count"
scalar FinalTask.Client[3].ipv4.ip packetDropUndefined:sum(packetBytes) 0
attr interpolationmode none
attr source packetDropReasonIsUndefined(packetDropped)
attr title "packet drop: undefined, sum(packetBytes)"
scalar FinalTask.Client[3].ipv4.arp arpResolutionFailed:count 0
attr title "ARP failed resolutions, count"
scalar FinalTask.Client[3].ipv4.arp arpResolutionCompleted:count 81
attr title "ARP completed resolutions, count"
scalar FinalTask.Client[3].ipv4.arp arpResolutionInitiated:count 1
attr title "ARP initiated resolutions, count"
scalar FinalTask.Client[3].ipv4.arp arpReplySent:count 16
attr source arpReplySent
attr title "ARP replies sent, count"
scalar FinalTask.Client[3].ipv4.arp arpReplySent:sum(packetBytes) 448
attr source arpReplySent
attr title "ARP replies sent, sum(packetBytes)"
scalar FinalTask.Client[3].ipv4.arp arpRequestSent:count 1
attr source arpRequestSent
attr title "ARP request sent, count"
scalar FinalTask.Client[3].ipv4.arp arpRequestSent:sum(packetBytes) 28
attr source arpRequestSent
attr title "ARP request sent, sum(packetBytes)"
scalar FinalTask.Client[3].udp packetReceived:count 0
attr interpolationmode none
attr source packetReceived
attr title "packets received, count"
scalar FinalTask.Client[3].udp packetReceived:sum(packetBytes) 0
attr interpolationmode none
attr source packetReceived
attr title "packets received, sum(packetBytes)"
scalar FinalTask.Client[3].udp packetSent:count 0
attr interpolationmode none
attr source packetSent
attr title "packets sent, count"
scalar FinalTask.Client[3].udp packetSent:sum(packetBytes) 0
attr interpolationmode none
attr source packetSent
attr title "packets sent, sum(packetBytes)"
scalar FinalTask.Client[3].udp passedUpPk:count 0
attr interpolationmode none
attr source packetSentToUpper
attr title "packets passed up, count"
scalar FinalTask.Client[3].udp droppedPkWrongPort:count 0
attr interpolationmode none
attr source packetDropReasonIsNoPortFound(packetDropped)
attr title "packets dropped (wrong port), count"
scalar FinalTask.Client[3].udp droppedPkBadChecksum:count 0
attr interpolationmode none
attr source packetDropReasonIsIncorrectlyReceived(packetDropped)
attr title "packets dropped (checksum error), count"
scalar FinalTask.Client[3].app[0] packetReceived:count 127905
attr interpolationmode none
attr source packetReceived
attr title "packets received, count"
scalar FinalTask.Client[3].app[0] packetReceived:sum(packetBytes) 199295303
attr interpolationmode none
attr source packetReceived
attr title "packets received, sum(packetBytes)"
statistic FinalTask.Client[3].app[0] endToEndDelay:histogram
field count 272762
field mean 1.5492869429512
field stddev 1.7574392106848
field min 0.060714525198
field max 17.671858197459
field sum 422586.60513326
field sqrsum 1497155.5101085
attr interpolationmode none
attr source dataAge(packetReceived)
attr title "end-to-end delay, histogram"
attr unit s
bin	-inf	0
bin	0	1656
bin	0.2	2446
bin	0.4	12380
bin	0.6	23627
bin	0.8	73364
bin	1	100608
bin	1.2	17704
bin	1.4	2268
bin	1.6	1823
bin	1.8	1316
bin	2	1270
bin	2.2	992
bin	2.4	1228
bin	2.6	1126
bin	2.8	1300
bin	3	1172
bin	3.2	1117
bin	3.4	1234
bin	3.6	1560
bin	3.8	1608
bin	4	2369
bin	4.2	1015
bin	4.4	1398
bin	4.6	959
bin	4.8	941
bin	5	1760
bin	5.2	1397
bin	5.4	1248
bin	5.6	936
bin	5.8	608
bin	6	699
bin	6.2	564
bin	6.4	560
bin	6.6	618
bin	6.8	617
bin	7	352
bin	7.2	339
bin	7.4	237
bin	7.6	242
bin	7.8	276
bin	8	292
bin	8.2	463
bin	8.4	358
bin	8.6	574
bin	8.8	451
bin	9	371
bin	9.2	306
bin	9.4	321
bin	9.6	283
bin	9.8	440
bin	10	171
bin	10.2	124
bin	10.4	128
bin	10.6	117
bin	10.8	66
bin	11	77
bin	11.2	88
bin	11.4	78
bin	11.6	77
bin	11.8	48
bin	12	57
bin	12.2	75
bin	12.4	27
bin	12.6	56
bin	12.8	44
bin	13	39
bin	13.2	34
bin	13.4	243
bin	13.6	18
bin	13.8	26
bin	14	26
bin	14.2	38
bin	14.4	41
bin	14.6	30
bin	14.8	17
bin	15	136
bin	15.2	6
bin	15.4	13
bin	15.6	8
bin	15.8	4
bin	16	4
bin	16.2	16
bin	16.4	4
bin	16.6	8
bin	16.8	12
bin	17	4
bin	17.2	4
bin	17.4	4
bin	17.6	1
bin	17.8	0
statistic FinalTask.Client[3].app[0] endToEndDelay:weightedHistogram
field count 272762
field mean 1.5546806258193
field stddev 1.7658160657868
field min 0.060714525198
field max 17.671858197459
field weights 1594362424
field weightedSum 2478724371.1271
field sqrSumWeights 18822928275520
field weightedSqrSum 8824979587.8195
attr interpolationmode none
attr source dataAge(packetReceived)
attr title "end-to-end delay, weightedHistogram"
attr unit s
bin	-inf	0
bin	0	9671040
bin	0.2	14284640
bin	0.4	72299200
bin	0.6	137981680
bin	0.8	428445760
bin	1	587531520
bin	1.2	103363632
bin	1.4	13253920
bin	1.6	10646224
bin	1.8	7688216
bin	2	7411472
bin	2.2	5800736
bin	2.4	7156416
bin	2.6	6577872
bin	2.8	7586264
bin	3	6853168
bin	3.2	6522736
bin	3.4	7202032
bin	3.6	9112208
bin	3.8	9382440
bin	4	13813736
bin	4.2	5920560
bin	4.4	8158752
bin	4.6	5598584
bin	4.8	5499896
bin	5	10279912
bin	5.2	8156856
bin	5.4	7291640
bin	5.6	5467576
bin	5.8	3551688
bin	6	4087064
bin	6.2	3309832
bin	6.4	4293312
bin	6.6	3640624
bin	6.8	3599984
bin	7	2041352
bin	7.2	1988104
bin	7.4	1379504
bin	7.6	1413280
bin	7.8	1611840
bin	8	1705280
bin	8.2	2703920
bin	8.4	2090720
bin	8.6	3349112
bin	8.8	3083864
bin	9	2163104
bin	9.2	1787040
bin	9.4	1869904
bin	9.6	1650488
bin	9.8	2564280
bin	10	995752
bin	10.2	732616
bin	10.4	747520
bin	10.6	687288
bin	10.8	385440
bin	11	448040
bin	11.2	513920
bin	11.4	455520
bin	11.6	454472
bin	11.8	280320
bin	12	334064
bin	12.2	438968
bin	12.4	158536
bin	12.6	327040
bin	12.8	256960
bin	13	233048
bin	13.2	198560
bin	13.4	1422576
bin	13.6	105120
bin	13.8	151840
bin	14	151840
bin	14.2	221920
bin	14.4	238568
bin	14.6	175200
bin	14.8	101960
bin	15	794152
bin	15.2	35040
bin	15.4	73528
bin	15.6	46720
bin	15.8	23360
bin	16	23360
bin	16.2	93440
bin	16.4	23360
bin	16.6	46720
bin	16.8	70080
bin	17	23360
bin	17.2	23360
bin	17.4	23360
bin	17.6	2512
bin	17.8	0
scalar FinalTask.Client[3].app[0] packetSent:count 305
attr interpolationmode none
attr source packetSent
attr title "packets sent, count"
scalar FinalTask.Client[3].app[0] packetSent:sum(packetBytes) 77470
attr interpolationmode none
attr source packetSent
attr title "packets sent, sum(packetBytes)"
scalar FinalTask.Client[3].app[0] numActiveSessions:max 1
attr interpolationmode sample-hold
attr source sum(connect)
attr title "number of active sessions, max"
scalar FinalTask.Client[3].app[0] numActiveSessions:timeavg 0.043148922338701
attr interpolationmode sample-hold
attr source sum(connect)
attr title "number of active sessions, timeavg"
scalar FinalTask.Client[3].app[0] numSessions:last 305
attr source sum(connect+1)/2
attr title "total number of sessions, last"
scalar FinalTask.radioMedium.propagation "Arrival computation count" 20531352
scalar FinalTask.radioMedium "transmission count" 3421892
scalar FinalTask.radioMedium "signal send count" 20531352
scalar FinalTask.radioMedium "reception computation count" 20531346
scalar FinalTask.radioMedium "interference computation count" 64999722
scalar FinalTask.radioMedium "reception decision computation count" 20522554
scalar FinalTask.radioMedium "listening decision computation count" 23948334
scalar FinalTask.radioMedium "reception cache hit" 85.712341781692
attr unit %
scalar FinalTask.radioMedium "interference cache hit" 66.666666666667
attr unit %
scalar FinalTask.radioMedium "noise cache hit" 0
attr unit %
scalar FinalTask.radioMedium "snir cache hit" 50
attr unit %
scalar FinalTask.radioMedium "reception decision cache hit" 50
attr unit %
scalar FinalTask.radioMedium "reception result cache hit" 0
attr unit %

