version 2
run VC_with_FTP_and_HTTP-0-20200817-00:31:58-21455
attr configname VC_with_FTP_and_HTTP
attr datetime 20200817-00:31:58
attr experiment VC_with_FTP_and_HTTP
attr inifile omnetpp.ini
attr iterationvars $time=2000
attr iterationvarsf time=2000-
attr measurement $time=2000
attr network FinalTask
attr processid 21455
attr repetition 0
attr replication #0
attr resultdir results
attr runnumber 0
attr seedset 0
itervar time 2000
param **.FTPUploadStudent.numApps 1
param **.FTPUploadStudent.app[0].typename "\"TcpSessionApp\""
param **.FTPUploadStudent.app[0].active true
param **.FTPUploadStudent.app[0].connectAddress "\"FTPServer\""
param **.FTPUploadStudent.app[0].connectPort 21
param **.FTPUploadStudent.app[0].sendBytes "2000000000 B"
param **.Client[*].numApps 1
param **.Client[*].app[0].typename "\"TcpBasicClientApp\""
param **.Client[*].app[0].connectAddress "\"HTTPServer\""
param **.Client[*].app[0].connectPort 10021
param **.Client[*].app[0].replyLength "1B * int(truncnormal(658800,64400))"
param **.Client[*].app[0].requestLength 254B
param **.Client[*].app[0].idleInterval 3s
param **.Client[*].app[0].thinkTime 0s
param **.Client[*].app[0].startTime uniform(0s,1s)
param **.ppp[*].ppp.queue.typename "\"DropTailQueue\""
param **.LISPRouter.ppp[*].ppp.queue.packetCapacity 70
param **.LRouter.ppp[*].ppp.queue.packetCapacity 70
param **.DISPRouter.ppp[*].ppp.queue.packetCapacity 70
param **.DRouter.ppp[*].ppp.queue.packetCapacity 70
param **.opMode "\"g(mixed)\""
param **.channelNumber 0
param **.wlan[*].bitrate 54Mbps
param **.wlan[*].mac.dcf.rtsPolicy.rtsThreshold 3000B
param **.address "\"auto\""
param **.constraintAreaMinX 0m
param **.constraintAreaMinY 0m
param **.constraintAreaMinZ 0m
param **.constraintAreaMaxX 250m
param **.constraintAreaMaxY 30m
param **.constraintAreaMaxZ 0m
param **.AP.mobility.typename "\"StationaryMobility\""
param **.AP.mobility.initialX 125m
param **.AP.mobility.initialY 15m
param **.AP.mobility.initialZ 0m
param **.initFromDisplayString false
param **.tcp.typename "\"Tcp\""
param **.tcpAlgorithmClass "\"TcpNewReno\""
param **.tcp.mss 1460
param **.dataTransferMode "\"object\""
param **.tcp.advertisedWindow "1000 * this.mss"
param **.tcp.windowScalingSupport true
param **.FTPServer.numApps 1
param **.FTPServer.app[0].typename "\"TcpSinkApp\""
param **.FTPServer.app[0].localPort 21
param **.HTTPServer.numApps 1
param **.HTTPServer.app[0].typename "\"TcpGenericServerApp\""
param **.HTTPServer.app[0].localPort 10021
param **.Professor.numApps 1
param **.Student.numApps 1
param **.Professor.app[0].typename "\"VideoConfApp\""
param **.Professor.app[0].destPort 100
param **.Professor.app[0].localPort 100
param **.Professor.app[0].messageLength "1400B + 12B"
param **.Professor.app[0].sendInterval 0.04s
param **.Student.app[0].typename "\"VideoConfApp\""
param **.Student.app[0].destPort 100
param **.Student.app[0].localPort 100
param **.Student.app[0].messageLength "1400B + 12B"
param **.Student.app[0].sendInterval 0.04s
param **.Professor.app[0].destAddresses "\"Student\""
param **.Student.app[0].destAddresses "\"Professor\""

scalar FinalTask.AP.ethg$o[0].channel throughput:last 7748233.7507359
attr source sumPerDuration(packetBits(messageSent))
attr unit bps
scalar FinalTask.DRouter.pppg$o[0].channel throughput:last 7624302.3171885
attr source sumPerDuration(packetBits(messageSent))
attr unit bps
scalar FinalTask.DRouter.ethg$o[0].channel throughput:last 2614947.7637262
attr source sumPerDuration(packetBits(messageSent))
attr unit bps
scalar FinalTask.DISPRouter.pppg$o[0].channel throughput:last 2465510.0876893
attr source sumPerDuration(packetBits(messageSent))
attr unit bps
scalar FinalTask.DISPRouter.ethg$o[0].channel throughput:last 82197.93308944
attr source sumPerDuration(packetBits(messageSent))
attr unit bps
scalar FinalTask.DISPRouter.ethg$o[1].channel throughput:last 7666019.1541333
attr source sumPerDuration(packetBits(messageSent))
attr unit bps
scalar FinalTask.HTTPServer.ethg$o[0].channel throughput:last 1974100.7790963
attr source sumPerDuration(packetBits(messageSent))
attr unit bps
scalar FinalTask.LISPRouter.pppg$o[0].channel throughput:last 7567283.6747199
attr source sumPerDuration(packetBits(messageSent))
attr unit bps
scalar FinalTask.LISPRouter.ethg$o[0].channel throughput:last 640950.16959538
attr source sumPerDuration(packetBits(messageSent))
attr unit bps
scalar FinalTask.LRouter.pppg$o[0].channel throughput:last 516397.24348582
attr source sumPerDuration(packetBits(messageSent))
attr unit bps
scalar FinalTask.LRouter.ethg$o[0].channel throughput:last 7369736.5431924
attr source sumPerDuration(packetBits(messageSent))
attr unit bps
scalar FinalTask.LRouter.ethg$o[1].channel throughput:last 293118.36138458
attr source sumPerDuration(packetBits(messageSent))
attr unit bps
scalar FinalTask.FTPServer.ethg$o[0].channel throughput:last 347754.05763695
attr source sumPerDuration(packetBits(messageSent))
attr unit bps
scalar FinalTask.Professor.ethg$o[0].channel throughput:last 293204.896
attr source sumPerDuration(packetBits(messageSent))
attr unit bps
scalar FinalTask.AP.relayUnit "number of received BPDUs from STP module" 0
scalar FinalTask.AP.relayUnit "number of received frames from network (including BPDUs)" 3125354
scalar FinalTask.AP.relayUnit "number of dropped frames (including BPDUs)" 0
scalar FinalTask.AP.relayUnit "number of delivered BPDUs to the STP module" 0
scalar FinalTask.AP.relayUnit "number of dispatched BPDU frames to the network" 0
scalar FinalTask.AP.relayUnit "number of dispatched non-BDPU frames to the network" 3125354
scalar FinalTask.AP.wlan[0].mac.dcf.channelAccess.pendingQueue packetPopped:count 1543795
attr interpolationmode none
attr title "packet popped, count"
scalar FinalTask.AP.wlan[0].mac.dcf.channelAccess.pendingQueue packetPopped:sum(packetBytes) 602816204
attr interpolationmode none
attr title "packet popped, sum(packetBytes)"
statistic FinalTask.AP.wlan[0].mac.dcf.channelAccess.pendingQueue queueingTime:histogram
field count 1543795
field mean 0.013768716371123
field stddev 0.10073622151952
field min 0
field max 120.70664429324
field sum 21256.075490157
field sqrsum 15958.760517993
attr interpolationmode none
attr source queueingTime(packetPopped)
attr title "queueing times, histogram"
attr unit s
bin	-inf	0
bin	0	1543794
bin	2	0
bin	4	0
bin	6	0
bin	8	0
bin	10	0
bin	12	0
bin	14	0
bin	16	0
bin	18	0
bin	20	0
bin	22	0
bin	24	0
bin	26	0
bin	28	0
bin	30	0
bin	32	0
bin	34	0
bin	36	0
bin	38	0
bin	40	0
bin	42	0
bin	44	0
bin	46	0
bin	48	0
bin	50	0
bin	52	0
bin	54	0
bin	56	0
bin	58	0
bin	60	0
bin	62	0
bin	64	0
bin	66	0
bin	68	0
bin	70	0
bin	72	0
bin	74	0
bin	76	0
bin	78	0
bin	80	0
bin	82	0
bin	84	0
bin	86	0
bin	88	0
bin	90	0
bin	92	0
bin	94	0
bin	96	0
bin	98	0
bin	100	0
bin	102	0
bin	104	0
bin	106	0
bin	108	0
bin	110	0
bin	112	0
bin	114	0
bin	116	0
bin	118	0
bin	120	1
bin	122	0
scalar FinalTask.AP.wlan[0].mac.dcf.channelAccess.pendingQueue queueLength:max 101
attr interpolationmode sample-hold
attr source "count(packetPushed) - count(packetPopped) - count(packetRemoved) - count(packetDropped)"
attr title "queue length, max"
scalar FinalTask.AP.wlan[0].mac.dcf.channelAccess.pendingQueue queueLength:timeavg 10.564795845899
attr interpolationmode sample-hold
attr source "count(packetPushed) - count(packetPopped) - count(packetRemoved) - count(packetDropped)"
attr title "queue length, timeavg"
scalar FinalTask.AP.wlan[0].mac.dcf.channelAccess.pendingQueue packetPushed:count 1604060
attr interpolationmode none
attr title "packet pushed, count"
scalar FinalTask.AP.wlan[0].mac.dcf.channelAccess.pendingQueue packetPushed:sum(packetBytes) 670538483
attr interpolationmode none
attr title "packet pushed, sum(packetBytes)"
scalar FinalTask.AP.wlan[0].mac.dcf.channelAccess.pendingQueue packetDropQueueOverflow:count 60263
attr interpolationmode none
attr source packetDropReasonIsQueueOverflow(packetDropped)
attr title "packet drops: queue overflow, count"
scalar FinalTask.AP.wlan[0].mac.dcf.channelAccess.pendingQueue packetDropQueueOverflow:sum(packetBytes) 67722115
attr interpolationmode none
attr source packetDropReasonIsQueueOverflow(packetDropped)
attr title "packet drops: queue overflow, sum(packetBytes)"
scalar FinalTask.AP.wlan[0].mac.dcf.channelAccess.pendingQueue packetRemoved:count 0
attr interpolationmode none
attr title "packets removed, count"
scalar FinalTask.AP.wlan[0].mac.dcf.channelAccess.pendingQueue packetRemoved:sum(packetBytes) 0
attr interpolationmode none
attr title "packets removed, sum(packetBytes)"
statistic FinalTask.AP.wlan[0].mac.dcf.channelAccess.inProgressFrames queueingTime:histogram
field count 1823815
field mean 0.00070926193422756
field stddev 0.00054819790029383
field min 3.8e-05
field max 0.006272165548
field sum 1293.5625545732
field sqrsum 1.4655689733116
attr interpolationmode none
attr source queueingTime(packetDequeued)
attr title "queueing times, histogram"
bin	-inf	0
bin	0	432338
bin	0.00012	24163
bin	0.00024	188857
bin	0.00036	134443
bin	0.00048	105662
bin	0.0006	94153
bin	0.00072	108094
bin	0.00084	120767
bin	0.00096	129251
bin	0.00108	133001
bin	0.0012	103012
bin	0.00132	56899
bin	0.00144	56202
bin	0.00156	55230
bin	0.00168	26498
bin	0.0018	13772
bin	0.00192	14791
bin	0.00204	12741
bin	0.00216	2911
bin	0.00228	2797
bin	0.0024	3045
bin	0.00252	1786
bin	0.00264	722
bin	0.00276	697
bin	0.00288	614
bin	0.003	352
bin	0.00312	230
bin	0.00324	183
bin	0.00336	168
bin	0.00348	100
bin	0.0036	79
bin	0.00372	61
bin	0.00384	52
bin	0.00396	35
bin	0.00408	31
bin	0.0042	22
bin	0.00432	15
bin	0.00444	4
bin	0.00456	8
bin	0.00468	5
bin	0.0048	9
bin	0.00492	4
bin	0.00504	2
bin	0.00516	2
bin	0.00528	1
bin	0.0054	1
bin	0.00552	1
bin	0.00564	2
bin	0.00576	1
bin	0.00588	0
bin	0.006	0
bin	0.00612	0
bin	0.00624	1
bin	0.00636	0
scalar FinalTask.AP.wlan[0].mac.dcf.channelAccess.inProgressFrames queueLength:max 3
attr interpolationmode sample-hold
attr source "count(packetEnqueued) - count(packetDequeued)"
attr title "queue length, max"
scalar FinalTask.AP.wlan[0].mac.dcf.channelAccess.inProgressFrames queueLength:timeavg 0.64678372549065
attr interpolationmode sample-hold
attr source "count(packetEnqueued) - count(packetDequeued)"
attr title "queue length, timeavg"
scalar FinalTask.AP.wlan[0].mac.dcf.channelAccess.contention channelAccessGranted:count 1547387
attr title "channel access granted, count"
scalar FinalTask.AP.wlan[0].mac.dcf.channelAccess.contention stateChanged:count 24723298
attr interpolationmode none
attr title "contention state changed, count"
scalar FinalTask.AP.wlan[0].mac.dcf.channelAccess channelOwnershipChanged:count 3094774
attr interpolationmode sample-hold
attr title "channel ownership, count"
scalar FinalTask.AP.wlan[0].mac.dcf.originatorMacDataService packetAggregated:count 0
attr title "packets aggregated, count"
scalar FinalTask.AP.wlan[0].mac.dcf.originatorMacDataService packetFragmented:count 280021
attr title "packets fragmented, count"
scalar FinalTask.AP.wlan[0].mac.dcf.recipientMacDataService packetDeaggregated:count 0
attr title "packets deaggregated, count"
scalar FinalTask.AP.wlan[0].mac.dcf.recipientMacDataService packetDefragmented:count 1541349
attr title "packets defragmented, count"
scalar FinalTask.AP.wlan[0].mac.dcf.recipientMacDataService packetDropDuplicateDetected:count 0
attr interpolationmode none
attr source packetDropReasonIsDuplicateDetected(packetDropped)
attr title "packet drops: duplicate detected, count"
scalar FinalTask.AP.wlan[0].mac.dcf.recipientMacDataService packetDropDuplicateDetected:sum(packetBytes) 0
attr interpolationmode none
attr source packetDropReasonIsDuplicateDetected(packetDropped)
attr title "packet drops: duplicate detected, sum(packetBytes)"
scalar FinalTask.AP.wlan[0].mac.dcf.recoveryProcedure retryLimitReached:count 0
attr title "retry limit reached, count"
scalar FinalTask.AP.wlan[0].mac.dcf frameSequenceFinished:count 1547387
attr title "finished frame sequences, count"
statistic FinalTask.AP.wlan[0].mac.dcf frameSequenceDuration:histogram
field count 1547387
field mean 0.00014678716557458
field stddev 0.00011863611990283
field min 3.8e-05
field max 0.000387318804
field sum 227.13655177696
field sqrsum 0.055119459680739
attr source frameSequenceDuration(frameSequenceFinished)
attr title "frame sequence durations, histogram"
bin	-inf	0
bin	0	0
bin	1e-05	0
bin	2e-05	0
bin	3e-05	7
bin	4e-05	20096
bin	5e-05	0
bin	6e-05	0
bin	7e-05	0
bin	8e-05	1193264
bin	9e-05	2125
bin	0.0001	22
bin	0.00011	34
bin	0.00012	27
bin	0.00013	26
bin	0.00014	25
bin	0.00015	25
bin	0.00016	20
bin	0.00017	37
bin	0.00018	26
bin	0.00019	167
bin	0.0002	33
bin	0.00021	42
bin	0.00022	23
bin	0.00023	49
bin	0.00024	23
bin	0.00025	43
bin	0.00026	25
bin	0.00027	44
bin	0.00028	24
bin	0.00029	49647
bin	0.0003	1498
bin	0.00031	0
bin	0.00032	0
bin	0.00033	14
bin	0.00034	0
bin	0.00035	0
bin	0.00036	0
bin	0.00037	0
bin	0.00038	280021
bin	0.00039	0
bin	0.0004	0
bin	0.00041	0
bin	0.00042	0
bin	0.00043	0
bin	0.00044	0
bin	0.00045	0
bin	0.00046	0
bin	0.00047	0
bin	0.00048	0
statistic FinalTask.AP.wlan[0].mac.dcf frameSequenceNumPackets:histogram
field count 1547387
field mean 2.3489359804625
field stddev 0.78427723165107
field min 1
field max 4
field sum 3634713
field sqrsum 9489491
attr source frameSequenceNumPackets(frameSequenceFinished)
attr title "frame sequences: number of packets, histogram"
bin	-inf	0
bin	0	0
bin	1	20103
bin	2	1247263
bin	3	0
bin	4	280021
bin	5	0
scalar FinalTask.AP.wlan[0].mac.dcf packetReceivedFromPeer:count 4552818
attr interpolationmode none
attr title "packets received, count"
scalar FinalTask.AP.wlan[0].mac.dcf packetReceivedFromPeer:sum(packetBytes) 2009847179
attr interpolationmode none
attr title "packets received, sum(packetBytes)"
scalar FinalTask.AP.wlan[0].mac.dcf packetReceivedFromPeerUnicast:count 4552812
attr interpolationmode none
attr source ieee80211Unicast(packetReceivedFromPeer)
attr title "packets received: unicast, count"
scalar FinalTask.AP.wlan[0].mac.dcf packetReceivedFromPeerUnicast:sum(packetBytes) 2009846987
attr interpolationmode none
attr source ieee80211Unicast(packetReceivedFromPeer)
attr title "packets received: unicast, sum(packetBytes)"
scalar FinalTask.AP.wlan[0].mac.dcf packetReceivedFromPeerMulticast:count 6
attr interpolationmode none
attr source ieee80211Multicast(packetReceivedFromPeer)
attr title "packets received: multicast, count"
scalar FinalTask.AP.wlan[0].mac.dcf packetReceivedFromPeerMulticast:sum(packetBytes) 192
attr interpolationmode none
attr source ieee80211Multicast(packetReceivedFromPeer)
attr title "packets received: multicast, sum(packetBytes)"
scalar FinalTask.AP.wlan[0].mac.dcf packetReceivedFromPeerBroadcast:count 6
attr interpolationmode none
attr source ieee80211Broadcast(packetReceivedFromPeer)
attr title "packets received: broadcast, count"
scalar FinalTask.AP.wlan[0].mac.dcf packetReceivedFromPeerBroadcast:sum(packetBytes) 192
attr interpolationmode none
attr source ieee80211Broadcast(packetReceivedFromPeer)
attr title "packets received: broadcast, sum(packetBytes)"
scalar FinalTask.AP.wlan[0].mac.dcf packetReceivedFromPeerWithRetry:count 8000
attr interpolationmode none
attr source ieee80211Retry(packetReceivedFromPeer)
attr title "packets received: with retry, count"
scalar FinalTask.AP.wlan[0].mac.dcf packetReceivedFromPeerWithRetry:sum(packetBytes) 7905960
attr interpolationmode none
attr source ieee80211Retry(packetReceivedFromPeer)
attr title "packets received: with retry, sum(packetBytes)"
scalar FinalTask.AP.wlan[0].mac.dcf packetReceivedFromPeerWithoutRetry:count 4544818
attr interpolationmode none
attr source ieee80211NotRetry(packetReceivedFromPeer)
attr title "packets received: without retry, count"
scalar FinalTask.AP.wlan[0].mac.dcf packetReceivedFromPeerWithoutRetry:sum(packetBytes) 2001941219
attr interpolationmode none
attr source ieee80211NotRetry(packetReceivedFromPeer)
attr title "packets received: without retry, sum(packetBytes)"
scalar FinalTask.AP.wlan[0].mac.dcf packetSentToPeer:count 4576508
attr interpolationmode none
attr title "packets sent, count"
scalar FinalTask.AP.wlan[0].mac.dcf packetSentToPeer:sum(packetBytes) 651585096
attr interpolationmode none
attr title "packets sent, sum(packetBytes)"
scalar FinalTask.AP.wlan[0].mac.dcf packetSentToPeerUnicast:count 4556405
attr interpolationmode none
attr source ieee80211Unicast(packetSentToPeer)
attr title "packets sent: unicast, count"
scalar FinalTask.AP.wlan[0].mac.dcf packetSentToPeerUnicast:sum(packetBytes) 650616776
attr interpolationmode none
attr source ieee80211Unicast(packetSentToPeer)
attr title "packets sent: unicast, sum(packetBytes)"
scalar FinalTask.AP.wlan[0].mac.dcf packetSentToPeerMulticast:count 20103
attr interpolationmode none
attr source ieee80211Multicast(packetSentToPeer)
attr title "packets sent: multicast, count"
scalar FinalTask.AP.wlan[0].mac.dcf packetSentToPeerMulticast:sum(packetBytes) 968320
attr interpolationmode none
attr source ieee80211Multicast(packetSentToPeer)
attr title "packets sent: multicast, sum(packetBytes)"
scalar FinalTask.AP.wlan[0].mac.dcf packetSentToPeerBroadcast:count 20103
attr interpolationmode none
attr source ieee80211Broadcast(packetSentToPeer)
attr title "packets sent: broadcast , count"
scalar FinalTask.AP.wlan[0].mac.dcf packetSentToPeerBroadcast:sum(packetBytes) 968320
attr interpolationmode none
attr source ieee80211Broadcast(packetSentToPeer)
attr title "packets sent: broadcast , sum(packetBytes)"
scalar FinalTask.AP.wlan[0].mac.dcf packetSentToPeerWithRetry:count 3593
attr interpolationmode none
attr source ieee80211Retry(packetSentToPeer)
attr title "packets sent: with retry, count"
scalar FinalTask.AP.wlan[0].mac.dcf packetSentToPeerWithRetry:sum(packetBytes) 2440986
attr interpolationmode none
attr source ieee80211Retry(packetSentToPeer)
attr title "packets sent: with retry, sum(packetBytes)"
scalar FinalTask.AP.wlan[0].mac.dcf packetSentToPeerWithoutRetry:count 4572915
attr interpolationmode none
attr source ieee80211NotRetry(packetSentToPeer)
attr title "packets sent: without retry, count"
scalar FinalTask.AP.wlan[0].mac.dcf packetSentToPeerWithoutRetry:sum(packetBytes) 649144110
attr interpolationmode none
attr source ieee80211NotRetry(packetSentToPeer)
attr title "packets sent: without retry, sum(packetBytes)"
scalar FinalTask.AP.wlan[0].mac.dcf packetDrop:count 60263
attr interpolationmode none
attr source packetDropped
attr title "packet drops, count"
scalar FinalTask.AP.wlan[0].mac.dcf packetDrop:sum(packetBytes) 67722115
attr interpolationmode none
attr source packetDropped
attr title "packet drops, sum(packetBytes)"
scalar FinalTask.AP.wlan[0].mac.dcf packetDropNotAddressedToUs:count 0
attr interpolationmode none
attr source packetDropReasonIsNotAddressedToUs(packetDropped)
attr title "packet drops: not addressed to us, count"
scalar FinalTask.AP.wlan[0].mac.dcf packetDropNotAddressedToUs:sum(packetBytes) 0
attr interpolationmode none
attr source packetDropReasonIsNotAddressedToUs(packetDropped)
attr title "packet drops: not addressed to us, sum(packetBytes)"
scalar FinalTask.AP.wlan[0].mac.dcf packetDropQueueOverflow:count 60263
attr interpolationmode none
attr source packetDropReasonIsQueueOverflow(packetDropped)
attr title "packet drops: queue overflow, count"
scalar FinalTask.AP.wlan[0].mac.dcf packetDropQueueOverflow:sum(packetBytes) 67722115
attr interpolationmode none
attr source packetDropReasonIsQueueOverflow(packetDropped)
attr title "packet drops: queue overflow, sum(packetBytes)"
scalar FinalTask.AP.wlan[0].mac.dcf packetDropRetryLimitReached:count 0
attr interpolationmode none
attr source packetDropReasonIsRetryLimitReached(packetDropped)
attr title "packet drops: retry limit reached, count"
scalar FinalTask.AP.wlan[0].mac.dcf packetDropRetryLimitReached:sum(packetBytes) 0
attr interpolationmode none
attr source packetDropReasonIsRetryLimitReached(packetDropped)
attr title "packet drops: retry limit reached, sum(packetBytes)"
scalar FinalTask.AP.wlan[0].mac.dcf linkBroken:count 0
attr interpolationmode none
attr title "link breaks, count"
scalar FinalTask.AP.wlan[0].mac packetReceivedFromLower:count 4555105
attr interpolationmode none
attr title "packets received from lower layer, count"
scalar FinalTask.AP.wlan[0].mac packetReceivedFromLower:sum(packetBytes) 2013035395
attr interpolationmode none
attr title "packets received from lower layer, sum(packetBytes)"
scalar FinalTask.AP.wlan[0].mac packetSentToLower:count 4576508
attr interpolationmode none
attr title "packets sent to lower layer, count"
scalar FinalTask.AP.wlan[0].mac packetSentToLower:sum(packetBytes) 651585096
attr interpolationmode none
attr title "packets sent to lower layer, sum(packetBytes)"
scalar FinalTask.AP.wlan[0].mac packetReceivedFromUpper:count 1584029
attr interpolationmode none
attr title "packets received from upper layer, count"
scalar FinalTask.AP.wlan[0].mac packetReceivedFromUpper:sum(packetBytes) 625224311
attr interpolationmode none
attr title "packets received from upper layer, sum(packetBytes)"
scalar FinalTask.AP.wlan[0].mac packetSentToUpper:count 1541325
attr interpolationmode none
attr title "packets sent to upper layer, count"
scalar FinalTask.AP.wlan[0].mac packetSentToUpper:sum(packetBytes) 1907620099
attr interpolationmode none
attr title "packets sent to upper layer, sum(packetBytes)"
scalar FinalTask.AP.wlan[0].mac packetDrop:count 62536
attr interpolationmode none
attr source packetDropped
attr title "packet drops, count"
scalar FinalTask.AP.wlan[0].mac packetDrop:sum(packetBytes) 70909267
attr interpolationmode none
attr source packetDropped
attr title "packet drops, sum(packetBytes)"
scalar FinalTask.AP.wlan[0].mac packetDropIncorrectlyReceived:count 2273
attr interpolationmode none
attr source packetDropReasonIsIncorrectlyReceived(packetDropped)
attr title "packet drops: incorrectly received, count"
scalar FinalTask.AP.wlan[0].mac packetDropIncorrectlyReceived:sum(packetBytes) 3187152
attr interpolationmode none
attr source packetDropReasonIsIncorrectlyReceived(packetDropped)
attr title "packet drops: incorrectly received, sum(packetBytes)"
scalar FinalTask.AP.wlan[0].mac packetDropNotAddressedToUs:count 0
attr interpolationmode none
attr source packetDropReasonIsNotAddressedToUs(packetDropped)
attr title "packet drops: not addressed to us, count"
scalar FinalTask.AP.wlan[0].mac packetDropNotAddressedToUs:sum(packetBytes) 0
attr interpolationmode none
attr source packetDropReasonIsNotAddressedToUs(packetDropped)
attr title "packet drops: not addressed to us, sum(packetBytes)"
scalar FinalTask.AP.wlan[0].mac packetDropQueueOverflow:count 60263
attr interpolationmode none
attr source packetDropReasonIsQueueOverflow(packetDropped)
attr title "packet drops: queue overflow, count"
scalar FinalTask.AP.wlan[0].mac packetDropQueueOverflow:sum(packetBytes) 67722115
attr interpolationmode none
attr source packetDropReasonIsQueueOverflow(packetDropped)
attr title "packet drops: queue overflow, sum(packetBytes)"
scalar FinalTask.AP.wlan[0].mac packetDropRetryLimitReached:count 0
attr interpolationmode none
attr source packetDropReasonIsRetryLimitReached(packetDropped)
attr title "packet drops: retry limit reached, count"
scalar FinalTask.AP.wlan[0].mac packetDropRetryLimitReached:sum(packetBytes) 0
attr interpolationmode none
attr source packetDropReasonIsRetryLimitReached(packetDropped)
attr title "packet drops: retry limit reached, sum(packetBytes)"
scalar FinalTask.AP.wlan[0].mac packetDropDuplicateDetected:count 0
attr interpolationmode none
attr source packetDropReasonIsDuplicateDetected(packetDropped)
attr title "packet drops: duplicate detected, count"
scalar FinalTask.AP.wlan[0].mac packetDropDuplicateDetected:sum(packetBytes) 0
attr interpolationmode none
attr source packetDropReasonIsDuplicateDetected(packetDropped)
attr title "packet drops: duplicate detected, sum(packetBytes)"
scalar FinalTask.AP.wlan[0].mac packetDropOther:count 0
attr interpolationmode none
attr source packetDropReasonIsOther(packetDropped)
attr title "packet drops: other, count"
scalar FinalTask.AP.wlan[0].mac packetDropOther:sum(packetBytes) 0
attr interpolationmode none
attr source packetDropReasonIsOther(packetDropped)
attr title "packet drops: other, sum(packetBytes)"
scalar FinalTask.AP.wlan[0].mac linkBroken:count 0
attr interpolationmode none
attr title "link breaks, count"
statistic FinalTask.AP.wlan[0].radio radioChannel:histogram
field count 1
field mean 0
field stddev -nan
field min 0
field max 0
field sum 0
field sqrsum 0
attr interpolationmode sample-hold
attr source radioChannelChanged
attr title "Radio channel, histogram"
bin	-inf	0
bin	-0.5	0
bin	-0.48	0
bin	-0.46	0
bin	-0.44	0
bin	-0.42	0
bin	-0.4	0
bin	-0.38	0
bin	-0.36	0
bin	-0.34	0
bin	-0.32	0
bin	-0.3	0
bin	-0.28	0
bin	-0.26	0
bin	-0.24	0
bin	-0.22	0
bin	-0.2	0
bin	-0.18	0
bin	-0.16	0
bin	-0.14	0
bin	-0.12	0
bin	-0.1	0
bin	-0.08	0
bin	-0.06	0
bin	-0.04	0
bin	-0.02	0
bin	0	1
bin	0.02	0
bin	0.04	0
bin	0.06	0
bin	0.08	0
bin	0.1	0
bin	0.12	0
bin	0.14	0
bin	0.16	0
bin	0.18	0
bin	0.2	0
bin	0.22	0
bin	0.24	0
bin	0.26	0
bin	0.28	0
bin	0.3	0
bin	0.32	0
bin	0.34	0
bin	0.36	0
bin	0.38	0
bin	0.4	0
bin	0.42	0
bin	0.44	0
bin	0.46	0
bin	0.48	0
bin	0.5	0
scalar FinalTask.AP.wlan[0].radio radioMode:count 9153019
attr interpolationmode sample-hold
attr source radioModeChanged
attr title "Radio mode, count"
scalar FinalTask.AP.wlan[0].radio receptionState:count 18265535
attr interpolationmode sample-hold
attr source receptionStateChanged
attr title "Radio reception state, count"
scalar FinalTask.AP.wlan[0].radio transmissionState:count 18306032
attr interpolationmode sample-hold
attr source transmissionStateChanged
attr title "Radio transmission state, count"
statistic FinalTask.AP.wlan[0].radio minSnir:histogram
field count 4555105
field mean 1045960.3447684
field stddev 419403.10335569
field min 0.086958638210026
field max 1248769.1368011
field sum 4764459196256.2
field sqrsum 5.7846734539838e+18
attr source minimumSnir(packetSentToUpper)
attr title "Min SNIR, histogram"
bin	-inf	0
bin	0	2273
bin	20000	310875
bin	40000	0
bin	60000	0
bin	80000	0
bin	100000	0
bin	120000	0
bin	140000	211367
bin	160000	0
bin	180000	0
bin	200000	0
bin	220000	216343
bin	240000	0
bin	260000	0
bin	280000	0
bin	300000	0
bin	320000	0
bin	340000	0
bin	360000	0
bin	380000	0
bin	400000	0
bin	420000	0
bin	440000	0
bin	460000	0
bin	480000	0
bin	500000	0
bin	520000	0
bin	540000	0
bin	560000	0
bin	580000	0
bin	600000	0
bin	620000	0
bin	640000	0
bin	660000	0
bin	680000	0
bin	700000	0
bin	720000	0
bin	740000	0
bin	760000	0
bin	780000	0
bin	800000	0
bin	820000	208001
bin	840000	0
bin	860000	0
bin	880000	0
bin	900000	0
bin	920000	0
bin	940000	0
bin	960000	0
bin	980000	0
bin	1000000	0
bin	1020000	0
bin	1040000	0
bin	1060000	0
bin	1080000	0
bin	1100000	0
bin	1120000	0
bin	1140000	0
bin	1160000	0
bin	1180000	0
bin	1200000	0
bin	1220000	0
bin	1240000	3606246
bin	1260000	0
bin	1280000	0
bin	1300000	0
bin	1320000	0
bin	1340000	0
bin	1360000	0
bin	1380000	0
bin	1400000	0
bin	1420000	0
bin	1440000	0
bin	1460000	0
bin	1480000	0
bin	1500000	0
bin	1520000	0
bin	1540000	0
bin	1560000	0
statistic FinalTask.AP.wlan[0].radio packetErrorRate:histogram
field count 4555105
field mean 0.00049900057188583
field stddev 0.022332749042785
field min 0
field max 1
field sum 2273
field sqrsum 2273
attr source packetErrorRate(packetSentToUpper)
attr title "Packet error rate, histogram"
bin	-inf	0
bin	-0.5	0
bin	-0.48	0
bin	-0.46	0
bin	-0.44	0
bin	-0.42	0
bin	-0.4	0
bin	-0.38	0
bin	-0.36	0
bin	-0.34	0
bin	-0.32	0
bin	-0.3	0
bin	-0.28	0
bin	-0.26	0
bin	-0.24	0
bin	-0.22	0
bin	-0.2	0
bin	-0.18	0
bin	-0.16	0
bin	-0.14	0
bin	-0.12	0
bin	-0.1	0
bin	-0.08	0
bin	-0.06	0
bin	-0.04	0
bin	-0.02	0
bin	0	4552832
bin	0.02	0
bin	0.04	0
bin	0.06	0
bin	0.08	0
bin	0.1	0
bin	0.12	0
bin	0.14	0
bin	0.16	0
bin	0.18	0
bin	0.2	0
bin	0.22	0
bin	0.24	0
bin	0.26	0
bin	0.28	0
bin	0.3	0
bin	0.32	0
bin	0.34	0
bin	0.36	0
bin	0.38	0
bin	0.4	0
bin	0.42	0
bin	0.44	0
bin	0.46	0
bin	0.48	0
bin	0.5	0
bin	0.52	0
bin	0.54	0
bin	0.56	0
bin	0.58	0
bin	0.6	0
bin	0.62	0
bin	0.64	0
bin	0.66	0
bin	0.68	0
bin	0.7	0
bin	0.72	0
bin	0.74	0
bin	0.76	0
bin	0.78	0
bin	0.8	0
bin	0.82	0
bin	0.84	0
bin	0.86	0
bin	0.88	0
bin	0.9	0
bin	0.92	0
bin	0.94	0
bin	0.96	0
bin	0.98	0
bin	1	2273
bin	1.02	0
statistic FinalTask.AP.wlan[0].radio bitErrorRate:histogram
field count 0
field mean -nan
field stddev -nan
field min -nan
field max -nan
field sum 0
field sqrsum 0
attr source bitErrorRate(packetSentToUpper)
attr title "Bit error rate, histogram"
bin	-inf	0
bin	0	0
bin	1	0
statistic FinalTask.AP.wlan[0].radio symbolErrorRate:histogram
field count 0
field mean -nan
field stddev -nan
field min -nan
field max -nan
field sum 0
field sqrsum 0
attr source symbolErrorRate(packetSentToUpper)
attr title "Symbol error rate, histogram"
bin	-inf	0
bin	0	0
bin	1	0
scalar FinalTask.AP.eth[0].mac.queue packetPopped:count 1541325
attr interpolationmode none
attr title "packet popped, count"
scalar FinalTask.AP.eth[0].mac.queue packetPopped:sum(packetBytes) 1924727338
attr interpolationmode none
attr title "packet popped, sum(packetBytes)"
statistic FinalTask.AP.eth[0].mac.queue queueingTime:histogram
field count 1541325
field mean 0
field stddev 0
field min 0
field max 0
field sum 0
field sqrsum 0
attr interpolationmode none
attr source queueingTime(packetPopped)
attr title "queueing times, histogram"
attr unit s
bin	-inf	0
bin	-0.5	0
bin	-0.48	0
bin	-0.46	0
bin	-0.44	0
bin	-0.42	0
bin	-0.4	0
bin	-0.38	0
bin	-0.36	0
bin	-0.34	0
bin	-0.32	0
bin	-0.3	0
bin	-0.28	0
bin	-0.26	0
bin	-0.24	0
bin	-0.22	0
bin	-0.2	0
bin	-0.18	0
bin	-0.16	0
bin	-0.14	0
bin	-0.12	0
bin	-0.1	0
bin	-0.08	0
bin	-0.06	0
bin	-0.04	0
bin	-0.02	0
bin	0	1541325
bin	0.02	0
bin	0.04	0
bin	0.06	0
bin	0.08	0
bin	0.1	0
bin	0.12	0
bin	0.14	0
bin	0.16	0
bin	0.18	0
bin	0.2	0
bin	0.22	0
bin	0.24	0
bin	0.26	0
bin	0.28	0
bin	0.3	0
bin	0.32	0
bin	0.34	0
bin	0.36	0
bin	0.38	0
bin	0.4	0
bin	0.42	0
bin	0.44	0
bin	0.46	0
bin	0.48	0
bin	0.5	0
scalar FinalTask.AP.eth[0].mac.queue queueLength:max 1
attr interpolationmode sample-hold
attr source "count(packetPushed) - count(packetPopped) - count(packetRemoved) - count(packetDropped)"
attr title "queue length, max"
scalar FinalTask.AP.eth[0].mac.queue queueLength:timeavg 0
attr interpolationmode sample-hold
attr source "count(packetPushed) - count(packetPopped) - count(packetRemoved) - count(packetDropped)"
attr title "queue length, timeavg"
scalar FinalTask.AP.eth[0].mac.queue packetPushed:count 1541325
attr interpolationmode none
attr title "packet pushed, count"
scalar FinalTask.AP.eth[0].mac.queue packetPushed:sum(packetBytes) 1924727338
attr interpolationmode none
attr title "packet pushed, sum(packetBytes)"
scalar FinalTask.AP.eth[0].mac.queue packetDropQueueOverflow:count 0
attr interpolationmode none
attr source packetDropReasonIsQueueOverflow(packetDropped)
attr title "packet drops: queue overflow, count"
scalar FinalTask.AP.eth[0].mac.queue packetDropQueueOverflow:sum(packetBytes) 0
attr interpolationmode none
attr source packetDropReasonIsQueueOverflow(packetDropped)
attr title "packet drops: queue overflow, sum(packetBytes)"
scalar FinalTask.AP.eth[0].mac.queue packetRemoved:count 0
attr interpolationmode none
attr title "packets removed, count"
scalar FinalTask.AP.eth[0].mac.queue packetRemoved:sum(packetBytes) 0
attr interpolationmode none
attr title "packets removed, sum(packetBytes)"
scalar FinalTask.AP.eth[0].mac "simulated time" 2000
scalar FinalTask.AP.eth[0].mac full-duplex 1
scalar FinalTask.AP.eth[0].mac "frames/sec sent" 770.6625
scalar FinalTask.AP.eth[0].mac "frames/sec rcvd" 792.0145
scalar FinalTask.AP.eth[0].mac "bits/sec sent" 7698909.352
scalar FinalTask.AP.eth[0].mac "bits/sec rcvd" 2564258.404
scalar FinalTask.AP.eth[0].mac "rx channel idle (%)" 100
scalar FinalTask.AP.eth[0].mac "rx channel utilization (%)" 0
scalar FinalTask.AP.eth[0].mac rxPausePkUnits:count 0
attr interpolationmode none
attr title "pause units received, count"
scalar FinalTask.AP.eth[0].mac rxPausePkUnits:sum 0
attr interpolationmode none
attr title "pause units received, sum"
scalar FinalTask.AP.eth[0].mac txPausePkUnits:count 0
attr interpolationmode none
attr title "pause units sent, count"
scalar FinalTask.AP.eth[0].mac txPausePkUnits:sum 0
attr interpolationmode none
attr title "pause units sent, sum"
scalar FinalTask.AP.eth[0].mac rxPkOk:count 1584029
attr interpolationmode none
attr source rxPkOk
attr title "packets received OK, count"
scalar FinalTask.AP.eth[0].mac rxPkOk:sum(packetBytes) 641064601
attr interpolationmode none
attr source rxPkOk
attr title "packets received OK, sum(packetBytes)"
scalar FinalTask.AP.eth[0].mac txPk:count 1541325
attr interpolationmode none
attr source packetSentToLower
attr title "packets transmitted, count"
scalar FinalTask.AP.eth[0].mac txPk:sum(packetBytes) 1924727338
attr interpolationmode none
attr source packetSentToLower
attr title "packets transmitted, sum(packetBytes)"
scalar FinalTask.AP.eth[0].mac packetReceivedFromUpper:count 1541325
attr interpolationmode none
attr source packetReceivedFromUpper
attr title "packet bytes from higher layer, count"
scalar FinalTask.AP.eth[0].mac packetReceivedFromUpper:sum(packetBytes) 1923033349
attr interpolationmode none
attr source packetReceivedFromUpper
attr title "packet bytes from higher layer, sum(packetBytes)"
scalar FinalTask.AP.eth[0].mac passedUpPk:count 1584029
attr interpolationmode none
attr source packetSentToUpper
attr title "packets passed to higher layer, count"
scalar FinalTask.AP.eth[0].mac passedUpPk:sum(packetBytes) 641064601
attr interpolationmode none
attr source packetSentToUpper
attr title "packets passed to higher layer, sum(packetBytes)"
scalar FinalTask.AP.eth[0].mac packetDropIncorrectlyReceived:count 0
attr interpolationmode none
attr source packetDropReasonIsIncorrectlyReceived(packetDropped)
attr title "packet drop: incorrectly received, count"
scalar FinalTask.AP.eth[0].mac packetDropIncorrectlyReceived:sum(packetBytes) 0
attr interpolationmode none
attr source packetDropReasonIsIncorrectlyReceived(packetDropped)
attr title "packet drop: incorrectly received, sum(packetBytes)"
scalar FinalTask.AP.eth[0].mac packetDropInterfaceDown:count 0
attr interpolationmode none
attr source packetDropReasonIsInterfaceDown(packetDropped)
attr title "packet drop: interface down, count"
scalar FinalTask.AP.eth[0].mac packetDropInterfaceDown:sum(packetBytes) 0
attr interpolationmode none
attr source packetDropReasonIsInterfaceDown(packetDropped)
attr title "packet drop: interface down, sum(packetBytes)"
scalar FinalTask.AP.eth[0].mac packetDropNotAddressedToUs:count 0
attr interpolationmode none
attr source packetDropReasonIsNotAddressedToUs(packetDropped)
attr title "packet drop: not addressed to us, count"
scalar FinalTask.AP.eth[0].mac packetDropNotAddressedToUs:sum(packetBytes) 0
attr interpolationmode none
attr source packetDropReasonIsNotAddressedToUs(packetDropped)
attr title "packet drop: not addressed to us, sum(packetBytes)"
scalar FinalTask.DRouter.lo[0].lo rcvdPkFromHl:count 0
attr interpolationmode none
attr source packetReceivedFromUpper
attr title "packets received from higher layer, count"
scalar FinalTask.DRouter.lo[0].lo rcvdPkFromHl:sum(packetBytes) 0
attr interpolationmode none
attr source packetReceivedFromUpper
attr title "packets received from higher layer, sum(packetBytes)"
scalar FinalTask.DRouter.lo[0].lo passedUpPk:count 0
attr interpolationmode none
attr source packetSentToUpper
attr title "packets passed to higher layer, count"
scalar FinalTask.DRouter.lo[0].lo passedUpPk:sum(packetBytes) 0
attr interpolationmode none
attr source packetSentToUpper
attr title "packets passed to higher layer, sum(packetBytes)"
scalar FinalTask.DRouter.ppp[0].ppp.queue packetPopped:count 1541223
attr interpolationmode none
attr title "packet popped, count"
scalar FinalTask.DRouter.ppp[0].ppp.queue packetPopped:sum(packetBytes) 1895286643
attr interpolationmode none
attr title "packet popped, sum(packetBytes)"
statistic FinalTask.DRouter.ppp[0].ppp.queue queueingTime:histogram
field count 1541223
field mean 4.3521157401294e-06
field stddev 2.9623684957026e-05
field min 0
field max 0.000285617854
field sum 6.7075808773495
field sqrsum 0.0013817111240137
attr interpolationmode none
attr source queueingTime(packetPopped)
attr title "queueing times, histogram"
attr unit s
bin	-inf	0
bin	0	1501172
bin	5e-06	1386
bin	1e-05	17
bin	1.5e-05	4
bin	2e-05	222
bin	2.5e-05	1507
bin	3e-05	24
bin	3.5e-05	2
bin	4e-05	219
bin	4.5e-05	1644
bin	5e-05	14
bin	5.5e-05	2
bin	6e-05	202
bin	6.5e-05	1764
bin	7e-05	11
bin	7.5e-05	1
bin	8e-05	227
bin	8.5e-05	1912
bin	9e-05	14
bin	9.5e-05	2
bin	0.0001	173
bin	0.000105	2084
bin	0.00011	6
bin	0.000115	1
bin	0.00012	125
bin	0.000125	2266
bin	0.00013	1
bin	0.000135	0
bin	0.00014	91
bin	0.000145	2476
bin	0.00015	0
bin	0.000155	1
bin	0.00016	24
bin	0.000165	2748
bin	0.00017	0
bin	0.000175	0
bin	0.00018	9
bin	0.000185	3143
bin	0.00019	0
bin	0.000195	0
bin	0.0002	7
bin	0.000205	3464
bin	0.00021	0
bin	0.000215	1
bin	0.00022	10
bin	0.000225	3856
bin	0.00023	0
bin	0.000235	0
bin	0.00024	9
bin	0.000245	4355
bin	0.00025	1
bin	0.000255	0
bin	0.00026	11
bin	0.000265	4385
bin	0.00027	0
bin	0.000275	0
bin	0.00028	12
bin	0.000285	1618
bin	0.00029	0
scalar FinalTask.DRouter.ppp[0].ppp.queue queueLength:max 3
attr interpolationmode sample-hold
attr source "count(packetPushed) - count(packetPopped) - count(packetRemoved) - count(packetDropped)"
attr title "queue length, max"
scalar FinalTask.DRouter.ppp[0].ppp.queue queueLength:timeavg 0.0033548375636919
attr interpolationmode sample-hold
attr source "count(packetPushed) - count(packetPopped) - count(packetRemoved) - count(packetDropped)"
attr title "queue length, timeavg"
scalar FinalTask.DRouter.ppp[0].ppp.queue packetPushed:count 1541223
attr interpolationmode none
attr title "packet pushed, count"
scalar FinalTask.DRouter.ppp[0].ppp.queue packetPushed:sum(packetBytes) 1895286643
attr interpolationmode none
attr title "packet pushed, sum(packetBytes)"
scalar FinalTask.DRouter.ppp[0].ppp.queue packetDropQueueOverflow:count 0
attr interpolationmode none
attr source packetDropReasonIsQueueOverflow(packetDropped)
attr title "packet drops: queue overflow, count"
scalar FinalTask.DRouter.ppp[0].ppp.queue packetDropQueueOverflow:sum(packetBytes) 0
attr interpolationmode none
attr source packetDropReasonIsQueueOverflow(packetDropped)
attr title "packet drops: queue overflow, sum(packetBytes)"
scalar FinalTask.DRouter.ppp[0].ppp.queue packetRemoved:count 0
attr interpolationmode none
attr title "packets removed, count"
scalar FinalTask.DRouter.ppp[0].ppp.queue packetRemoved:sum(packetBytes) 0
attr interpolationmode none
attr title "packets removed, sum(packetBytes)"
scalar FinalTask.DRouter.ppp[0].ppp transmissionState:timeavg 0.19060752040546
attr interpolationmode sample-hold
attr source transmissionStateChanged
attr title "tx state, timeavg"
scalar FinalTask.DRouter.ppp[0].ppp rxPkOk:count 1583925
attr interpolationmode none
attr source rxPkOk
attr title "packets received OK, count"
scalar FinalTask.DRouter.ppp[0].ppp rxPkOk:sum(packetBytes) 616377419
attr interpolationmode none
attr source rxPkOk
attr title "packets received OK, sum(packetBytes)"
scalar FinalTask.DRouter.ppp[0].ppp txPk:count 1541223
attr interpolationmode none
attr source packetSentToLower
attr title "packets transmitted, count"
scalar FinalTask.DRouter.ppp[0].ppp txPk:sum(packetBytes) 1906075204
attr interpolationmode none
attr source packetSentToLower
attr title "packets transmitted, sum(packetBytes)"
scalar FinalTask.DRouter.ppp[0].ppp rcvdPkFromHl:count 1541223
attr interpolationmode none
attr source packetReceivedFromUpper
attr title "packets received from higher layer, count"
scalar FinalTask.DRouter.ppp[0].ppp rcvdPkFromHl:sum(packetBytes) 1895286643
attr interpolationmode none
attr source packetReceivedFromUpper
attr title "packets received from higher layer, sum(packetBytes)"
scalar FinalTask.DRouter.ppp[0].ppp passedUpPk:count 1583925
attr interpolationmode none
attr source packetSentToUpper
attr title "packets passed to higher layer, count"
scalar FinalTask.DRouter.ppp[0].ppp passedUpPk:sum(packetBytes) 605289944
attr interpolationmode none
attr source packetSentToUpper
attr title "packets passed to higher layer, sum(packetBytes)"
scalar FinalTask.DRouter.ppp[0].ppp packetDropIncorrectlyReceived:count 0
attr interpolationmode none
attr source packetDropReasonIsIncorrectlyReceived(packetDropped)
attr title "packet drop: incorrectly received, count"
scalar FinalTask.DRouter.ppp[0].ppp packetDropIncorrectlyReceived:sum(packetBytes) 0
attr interpolationmode none
attr source packetDropReasonIsIncorrectlyReceived(packetDropped)
attr title "packet drop: incorrectly received, sum(packetBytes)"
scalar FinalTask.DRouter.ppp[0].ppp packetDropInterfaceDown:count 0
attr interpolationmode none
attr source packetDropReasonIsInterfaceDown(packetDropped)
attr title "packet drop: interface down, count"
scalar FinalTask.DRouter.ppp[0].ppp packetDropInterfaceDown:sum(packetBytes) 0
attr interpolationmode none
attr source packetDropReasonIsInterfaceDown(packetDropped)
attr title "packet drop: interface down, sum(packetBytes)"
scalar FinalTask.DRouter.eth[0].mac.queue packetPopped:count 1584029
attr interpolationmode none
attr title "packet popped, count"
scalar FinalTask.DRouter.eth[0].mac.queue packetPopped:sum(packetBytes) 641064601
attr interpolationmode none
attr title "packet popped, sum(packetBytes)"
statistic FinalTask.DRouter.eth[0].mac.queue queueingTime:histogram
field count 1584029
field mean 2.7689363389004e-06
field stddev 3.0033788378444e-05
field min 0
field max 0.00652112
field sum 4.3860754599721
field sqrsum 0.0014409830763908
attr interpolationmode none
attr source queueingTime(packetPopped)
attr title "queueing times, histogram"
attr unit s
bin	-inf	0
bin	0	1556989
bin	0.0001	25481
bin	0.0002	1196
bin	0.0003	245
bin	0.0004	36
bin	0.0005	6
bin	0.0006	2
bin	0.0007	3
bin	0.0008	3
bin	0.0009	2
bin	0.001	1
bin	0.0011	2
bin	0.0012	1
bin	0.0013	2
bin	0.0014	2
bin	0.0015	3
bin	0.0016	1
bin	0.0017	3
bin	0.0018	2
bin	0.0019	1
bin	0.002	2
bin	0.0021	1
bin	0.0022	2
bin	0.0023	2
bin	0.0024	2
bin	0.0025	1
bin	0.0026	1
bin	0.0027	2
bin	0.0028	2
bin	0.0029	1
bin	0.003	1
bin	0.0031	1
bin	0.0032	1
bin	0.0033	1
bin	0.0034	1
bin	0.0035	1
bin	0.0036	1
bin	0.0037	0
bin	0.0038	1
bin	0.0039	1
bin	0.004	1
bin	0.0041	1
bin	0.0042	0
bin	0.0043	1
bin	0.0044	1
bin	0.0045	1
bin	0.0046	1
bin	0.0047	2
bin	0.0048	0
bin	0.0049	1
bin	0.005	1
bin	0.0051	1
bin	0.0052	1
bin	0.0053	0
bin	0.0054	1
bin	0.0055	1
bin	0.0056	1
bin	0.0057	1
bin	0.0058	0
bin	0.0059	1
bin	0.006	1
bin	0.0061	1
bin	0.0062	2
bin	0.0063	1
bin	0.0064	0
bin	0.0065	1
bin	0.0066	0
scalar FinalTask.DRouter.eth[0].mac.queue queueLength:max 77
attr interpolationmode sample-hold
attr source "count(packetPushed) - count(packetPopped) - count(packetRemoved) - count(packetDropped)"
attr title "queue length, max"
scalar FinalTask.DRouter.eth[0].mac.queue queueLength:timeavg 0.0021932920964996
attr interpolationmode sample-hold
attr source "count(packetPushed) - count(packetPopped) - count(packetRemoved) - count(packetDropped)"
attr title "queue length, timeavg"
scalar FinalTask.DRouter.eth[0].mac.queue packetPushed:count 1584029
attr interpolationmode none
attr title "packet pushed, count"
scalar FinalTask.DRouter.eth[0].mac.queue packetPushed:sum(packetBytes) 641064601
attr interpolationmode none
attr title "packet pushed, sum(packetBytes)"
scalar FinalTask.DRouter.eth[0].mac.queue packetDropQueueOverflow:count 0
attr interpolationmode none
attr source packetDropReasonIsQueueOverflow(packetDropped)
attr title "packet drops: queue overflow, count"
scalar FinalTask.DRouter.eth[0].mac.queue packetDropQueueOverflow:sum(packetBytes) 0
attr interpolationmode none
attr source packetDropReasonIsQueueOverflow(packetDropped)
attr title "packet drops: queue overflow, sum(packetBytes)"
scalar FinalTask.DRouter.eth[0].mac.queue packetRemoved:count 0
attr interpolationmode none
attr title "packets removed, count"
scalar FinalTask.DRouter.eth[0].mac.queue packetRemoved:sum(packetBytes) 0
attr interpolationmode none
attr title "packets removed, sum(packetBytes)"
scalar FinalTask.DRouter.eth[0].mac "simulated time" 2000
scalar FinalTask.DRouter.eth[0].mac full-duplex 1
scalar FinalTask.DRouter.eth[0].mac "frames/sec sent" 792.0145
scalar FinalTask.DRouter.eth[0].mac "frames/sec rcvd" 770.6625
scalar FinalTask.DRouter.eth[0].mac "bits/sec sent" 2564258.404
scalar FinalTask.DRouter.eth[0].mac "bits/sec rcvd" 7698909.352
scalar FinalTask.DRouter.eth[0].mac "rx channel idle (%)" 100
scalar FinalTask.DRouter.eth[0].mac "rx channel utilization (%)" 0
scalar FinalTask.DRouter.eth[0].mac rxPausePkUnits:count 0
attr interpolationmode none
attr title "pause units received, count"
scalar FinalTask.DRouter.eth[0].mac rxPausePkUnits:sum 0
attr interpolationmode none
attr title "pause units received, sum"
scalar FinalTask.DRouter.eth[0].mac txPausePkUnits:count 0
attr interpolationmode none
attr title "pause units sent, count"
scalar FinalTask.DRouter.eth[0].mac txPausePkUnits:sum 0
attr interpolationmode none
attr title "pause units sent, sum"
scalar FinalTask.DRouter.eth[0].mac rxPkOk:count 1541325
attr interpolationmode none
attr source rxPkOk
attr title "packets received OK, count"
scalar FinalTask.DRouter.eth[0].mac rxPkOk:sum(packetBytes) 1924727338
attr interpolationmode none
attr source rxPkOk
attr title "packets received OK, sum(packetBytes)"
scalar FinalTask.DRouter.eth[0].mac txPk:count 1584029
attr interpolationmode none
attr source packetSentToLower
attr title "packets transmitted, count"
scalar FinalTask.DRouter.eth[0].mac txPk:sum(packetBytes) 641064601
attr interpolationmode none
attr source packetSentToLower
attr title "packets transmitted, sum(packetBytes)"
scalar FinalTask.DRouter.eth[0].mac packetReceivedFromUpper:count 1584029
attr interpolationmode none
attr source packetReceivedFromUpper
attr title "packet bytes from higher layer, count"
scalar FinalTask.DRouter.eth[0].mac packetReceivedFromUpper:sum(packetBytes) 633805378
attr interpolationmode none
attr source packetReceivedFromUpper
attr title "packet bytes from higher layer, sum(packetBytes)"
scalar FinalTask.DRouter.eth[0].mac passedUpPk:count 1541325
attr interpolationmode none
attr source packetSentToUpper
attr title "packets passed to higher layer, count"
scalar FinalTask.DRouter.eth[0].mac passedUpPk:sum(packetBytes) 1924727338
attr interpolationmode none
attr source packetSentToUpper
attr title "packets passed to higher layer, sum(packetBytes)"
scalar FinalTask.DRouter.eth[0].mac packetDropIncorrectlyReceived:count 0
attr interpolationmode none
attr source packetDropReasonIsIncorrectlyReceived(packetDropped)
attr title "packet drop: incorrectly received, count"
scalar FinalTask.DRouter.eth[0].mac packetDropIncorrectlyReceived:sum(packetBytes) 0
attr interpolationmode none
attr source packetDropReasonIsIncorrectlyReceived(packetDropped)
attr title "packet drop: incorrectly received, sum(packetBytes)"
scalar FinalTask.DRouter.eth[0].mac packetDropInterfaceDown:count 0
attr interpolationmode none
attr source packetDropReasonIsInterfaceDown(packetDropped)
attr title "packet drop: interface down, count"
scalar FinalTask.DRouter.eth[0].mac packetDropInterfaceDown:sum(packetBytes) 0
attr interpolationmode none
attr source packetDropReasonIsInterfaceDown(packetDropped)
attr title "packet drop: interface down, sum(packetBytes)"
scalar FinalTask.DRouter.eth[0].mac packetDropNotAddressedToUs:count 0
attr interpolationmode none
attr source packetDropReasonIsNotAddressedToUs(packetDropped)
attr title "packet drop: not addressed to us, count"
scalar FinalTask.DRouter.eth[0].mac packetDropNotAddressedToUs:sum(packetBytes) 0
attr interpolationmode none
attr source packetDropReasonIsNotAddressedToUs(packetDropped)
attr title "packet drop: not addressed to us, sum(packetBytes)"
scalar FinalTask.DRouter.eth[0].encap pauseSent:count 0
attr title "pause sent, count"
scalar FinalTask.DRouter.eth[0].encap pauseSent:sum 0
attr title "pause sent, sum"
scalar FinalTask.DRouter.eth[0].encap decapPk:count 1541325
attr interpolationmode none
attr source decapPk
attr title "packets decapsulated, count"
scalar FinalTask.DRouter.eth[0].encap decapPk:sum(packetBytes) 1896983488
attr interpolationmode none
attr source decapPk
attr title "packets decapsulated, sum(packetBytes)"
scalar FinalTask.DRouter.eth[0].encap encapPk:count 1584029
attr interpolationmode none
attr source encapPk
attr title "packets encapsulated, count"
scalar FinalTask.DRouter.eth[0].encap encapPk:sum(packetBytes) 605292856
attr interpolationmode none
attr source encapPk
attr title "packets encapsulated, sum(packetBytes)"
scalar FinalTask.DRouter.ipv4.ip packetDropAddressResolutionFailed:count 0
attr interpolationmode none
attr source packetDropReasonIsAddressResolutionFailed(packetDropped)
attr title "packet drop: address resolution failed, count"
scalar FinalTask.DRouter.ipv4.ip packetDropAddressResolutionFailed:sum(packetBytes) 0
attr interpolationmode none
attr source packetDropReasonIsAddressResolutionFailed(packetDropped)
attr title "packet drop: address resolution failed, sum(packetBytes)"
scalar FinalTask.DRouter.ipv4.ip packetDropHopLimitReached:count 0
attr interpolationmode none
attr source packetDropReasonIsHopLimitReached(packetDropped)
attr title "packet drop: hop limit reached, count"
scalar FinalTask.DRouter.ipv4.ip packetDropHopLimitReached:sum(packetBytes) 0
attr interpolationmode none
attr source packetDropReasonIsHopLimitReached(packetDropped)
attr title "packet drop: hop limit reached, sum(packetBytes)"
scalar FinalTask.DRouter.ipv4.ip packetDropForwardingDisabled:count 0
attr interpolationmode none
attr source packetDropReasonIsForwardingDisabled(packetDropped)
attr title "packet drop: forwarding disabled, count"
scalar FinalTask.DRouter.ipv4.ip packetDropForwardingDisabled:sum(packetBytes) 0
attr interpolationmode none
attr source packetDropReasonIsForwardingDisabled(packetDropped)
attr title "packet drop: forwarding disabled, sum(packetBytes)"
scalar FinalTask.DRouter.ipv4.ip packetDropNoInterfaceFound:count 0
attr interpolationmode none
attr source packetDropReasonIsNoInterfaceFound(packetDropped)
attr title "packet drop: no interface found, count"
scalar FinalTask.DRouter.ipv4.ip packetDropNoInterfaceFound:sum(packetBytes) 0
attr interpolationmode none
attr source packetDropReasonIsNoInterfaceFound(packetDropped)
attr title "packet drop: no interface found, sum(packetBytes)"
scalar FinalTask.DRouter.ipv4.ip packetDropNoRouteFound:count 0
attr interpolationmode none
attr source packetDropReasonIsNoRouteFound(packetDropped)
attr title "packet drop: no route found, count"
scalar FinalTask.DRouter.ipv4.ip packetDropNoRouteFound:sum(packetBytes) 0
attr interpolationmode none
attr source packetDropReasonIsNoRouteFound(packetDropped)
attr title "packet drop: no route found, sum(packetBytes)"
scalar FinalTask.DRouter.ipv4.ip packetDropUndefined:count 0
attr interpolationmode none
attr source packetDropReasonIsUndefined(packetDropped)
attr title "packet drop: undefined, count"
scalar FinalTask.DRouter.ipv4.ip packetDropUndefined:sum(packetBytes) 0
attr interpolationmode none
attr source packetDropReasonIsUndefined(packetDropped)
attr title "packet drop: undefined, sum(packetBytes)"
scalar FinalTask.DRouter.ipv4.arp arpResolutionFailed:count 0
attr title "ARP failed resolutions, count"
scalar FinalTask.DRouter.ipv4.arp arpResolutionCompleted:count 102
attr title "ARP completed resolutions, count"
scalar FinalTask.DRouter.ipv4.arp arpResolutionInitiated:count 97
attr title "ARP initiated resolutions, count"
scalar FinalTask.DRouter.ipv4.arp arpReplySent:count 7
attr source arpReplySent
attr title "ARP replies sent, count"
scalar FinalTask.DRouter.ipv4.arp arpReplySent:sum(packetBytes) 196
attr source arpReplySent
attr title "ARP replies sent, sum(packetBytes)"
scalar FinalTask.DRouter.ipv4.arp arpRequestSent:count 97
attr source arpRequestSent
attr title "ARP request sent, count"
scalar FinalTask.DRouter.ipv4.arp arpRequestSent:sum(packetBytes) 2716
attr source arpRequestSent
attr title "ARP request sent, sum(packetBytes)"
scalar FinalTask.DISPRouter.lo[0].lo rcvdPkFromHl:count 0
attr interpolationmode none
attr source packetReceivedFromUpper
attr title "packets received from higher layer, count"
scalar FinalTask.DISPRouter.lo[0].lo rcvdPkFromHl:sum(packetBytes) 0
attr interpolationmode none
attr source packetReceivedFromUpper
attr title "packets received from higher layer, sum(packetBytes)"
scalar FinalTask.DISPRouter.lo[0].lo passedUpPk:count 0
attr interpolationmode none
attr source packetSentToUpper
attr title "packets passed to higher layer, count"
scalar FinalTask.DISPRouter.lo[0].lo passedUpPk:sum(packetBytes) 0
attr interpolationmode none
attr source packetSentToUpper
attr title "packets passed to higher layer, sum(packetBytes)"
scalar FinalTask.DISPRouter.ppp[0].ppp.queue packetPopped:count 1583925
attr interpolationmode none
attr title "packet popped, count"
scalar FinalTask.DISPRouter.ppp[0].ppp.queue packetPopped:sum(packetBytes) 605289944
attr interpolationmode none
attr title "packet popped, sum(packetBytes)"
statistic FinalTask.DISPRouter.ppp[0].ppp.queue queueingTime:histogram
field count 1583925
field mean 1.1286201441842e-06
field stddev 9.715474848701e-06
field min 0
field max 0.000226991361
field sum 1.7876496618769
field sqrsum 0.00015152487897744
attr interpolationmode none
attr source queueingTime(packetPopped)
attr title "queueing times, histogram"
attr unit s
bin	-inf	0
bin	0	1557151
bin	4e-06	858
bin	8e-06	877
bin	1.2e-05	868
bin	1.6e-05	806
bin	2e-05	807
bin	2.4e-05	822
bin	2.8e-05	783
bin	3.2e-05	850
bin	3.6e-05	797
bin	4e-05	861
bin	4.4e-05	911
bin	4.8e-05	843
bin	5.2e-05	884
bin	5.6e-05	845
bin	6e-05	896
bin	6.4e-05	872
bin	6.8e-05	815
bin	7.2e-05	914
bin	7.6e-05	903
bin	8e-05	900
bin	8.4e-05	917
bin	8.8e-05	904
bin	9.2e-05	1277
bin	9.6e-05	930
bin	0.0001	916
bin	0.000104	954
bin	0.000108	1044
bin	0.000112	1550
bin	0.000116	751
bin	0.00012	115
bin	0.000124	16
bin	0.000128	12
bin	0.000132	17
bin	0.000136	16
bin	0.00014	11
bin	0.000144	10
bin	0.000148	12
bin	0.000152	14
bin	0.000156	9
bin	0.00016	16
bin	0.000164	9
bin	0.000168	11
bin	0.000172	13
bin	0.000176	14
bin	0.00018	14
bin	0.000184	18
bin	0.000188	9
bin	0.000192	13
bin	0.000196	12
bin	0.0002	12
bin	0.000204	11
bin	0.000208	5
bin	0.000212	17
bin	0.000216	6
bin	0.00022	4
bin	0.000224	3
bin	0.000228	0
scalar FinalTask.DISPRouter.ppp[0].ppp.queue queueLength:max 17
attr interpolationmode sample-hold
attr source "count(packetPushed) - count(packetPopped) - count(packetRemoved) - count(packetDropped)"
attr title "queue length, max"
scalar FinalTask.DISPRouter.ppp[0].ppp.queue queueLength:timeavg 0.00089392845233115
attr interpolationmode sample-hold
attr source "count(packetPushed) - count(packetPopped) - count(packetRemoved) - count(packetDropped)"
attr title "queue length, timeavg"
scalar FinalTask.DISPRouter.ppp[0].ppp.queue packetPushed:count 1583925
attr interpolationmode none
attr title "packet pushed, count"
scalar FinalTask.DISPRouter.ppp[0].ppp.queue packetPushed:sum(packetBytes) 605289944
attr interpolationmode none
attr title "packet pushed, sum(packetBytes)"
scalar FinalTask.DISPRouter.ppp[0].ppp.queue packetDropQueueOverflow:count 0
attr interpolationmode none
attr source packetDropReasonIsQueueOverflow(packetDropped)
attr title "packet drops: queue overflow, count"
scalar FinalTask.DISPRouter.ppp[0].ppp.queue packetDropQueueOverflow:sum(packetBytes) 0
attr interpolationmode none
attr source packetDropReasonIsQueueOverflow(packetDropped)
attr title "packet drops: queue overflow, sum(packetBytes)"
scalar FinalTask.DISPRouter.ppp[0].ppp.queue packetRemoved:count 0
attr interpolationmode none
attr title "packets removed, count"
scalar FinalTask.DISPRouter.ppp[0].ppp.queue packetRemoved:sum(packetBytes) 0
attr interpolationmode none
attr title "packets removed, sum(packetBytes)"
scalar FinalTask.DISPRouter.ppp[0].ppp transmissionState:timeavg 0.024655096759273
attr interpolationmode sample-hold
attr source transmissionStateChanged
attr title "tx state, timeavg"
scalar FinalTask.DISPRouter.ppp[0].ppp rxPkOk:count 1541223
attr interpolationmode none
attr source rxPkOk
attr title "packets received OK, count"
scalar FinalTask.DISPRouter.ppp[0].ppp rxPkOk:sum(packetBytes) 1906075204
attr interpolationmode none
attr source rxPkOk
attr title "packets received OK, sum(packetBytes)"
scalar FinalTask.DISPRouter.ppp[0].ppp txPk:count 1583925
attr interpolationmode none
attr source packetSentToLower
attr title "packets transmitted, count"
scalar FinalTask.DISPRouter.ppp[0].ppp txPk:sum(packetBytes) 616377419
attr interpolationmode none
attr source packetSentToLower
attr title "packets transmitted, sum(packetBytes)"
scalar FinalTask.DISPRouter.ppp[0].ppp rcvdPkFromHl:count 1583925
attr interpolationmode none
attr source packetReceivedFromUpper
attr title "packets received from higher layer, count"
scalar FinalTask.DISPRouter.ppp[0].ppp rcvdPkFromHl:sum(packetBytes) 605289944
attr interpolationmode none
attr source packetReceivedFromUpper
attr title "packets received from higher layer, sum(packetBytes)"
scalar FinalTask.DISPRouter.ppp[0].ppp passedUpPk:count 1541223
attr interpolationmode none
attr source packetSentToUpper
attr title "packets passed to higher layer, count"
scalar FinalTask.DISPRouter.ppp[0].ppp passedUpPk:sum(packetBytes) 1895286643
attr interpolationmode none
attr source packetSentToUpper
attr title "packets passed to higher layer, sum(packetBytes)"
scalar FinalTask.DISPRouter.ppp[0].ppp packetDropIncorrectlyReceived:count 0
attr interpolationmode none
attr source packetDropReasonIsIncorrectlyReceived(packetDropped)
attr title "packet drop: incorrectly received, count"
scalar FinalTask.DISPRouter.ppp[0].ppp packetDropIncorrectlyReceived:sum(packetBytes) 0
attr interpolationmode none
attr source packetDropReasonIsIncorrectlyReceived(packetDropped)
attr title "packet drop: incorrectly received, sum(packetBytes)"
scalar FinalTask.DISPRouter.ppp[0].ppp packetDropInterfaceDown:count 0
attr interpolationmode none
attr source packetDropReasonIsInterfaceDown(packetDropped)
attr title "packet drop: interface down, count"
scalar FinalTask.DISPRouter.ppp[0].ppp packetDropInterfaceDown:sum(packetBytes) 0
attr interpolationmode none
attr source packetDropReasonIsInterfaceDown(packetDropped)
attr title "packet drop: interface down, sum(packetBytes)"
scalar FinalTask.DISPRouter.eth[0].mac.queue packetPopped:count 283275
attr interpolationmode none
attr title "packet popped, count"
scalar FinalTask.DISPRouter.eth[0].mac.queue packetPopped:sum(packetBytes) 18282862
attr interpolationmode none
attr title "packet popped, sum(packetBytes)"
statistic FinalTask.DISPRouter.eth[0].mac.queue queueingTime:histogram
field count 283275
field mean 1.307028152855e-07
field stddev 7.7874181972595e-06
field min 0
field max 0.00069888
field sum 0.03702484
field sqrsum 1.71836743312e-05
attr interpolationmode none
attr source queueingTime(packetPopped)
attr title "queueing times, histogram"
attr unit s
bin	-inf	0
bin	-0.5	0
bin	-0.48	0
bin	-0.46	0
bin	-0.44	0
bin	-0.42	0
bin	-0.4	0
bin	-0.38	0
bin	-0.36	0
bin	-0.34	0
bin	-0.32	0
bin	-0.3	0
bin	-0.28	0
bin	-0.26	0
bin	-0.24	0
bin	-0.22	0
bin	-0.2	0
bin	-0.18	0
bin	-0.16	0
bin	-0.14	0
bin	-0.12	0
bin	-0.1	0
bin	-0.08	0
bin	-0.06	0
bin	-0.04	0
bin	-0.02	0
bin	0	283275
bin	0.02	0
bin	0.04	0
bin	0.06	0
bin	0.08	0
bin	0.1	0
bin	0.12	0
bin	0.14	0
bin	0.16	0
bin	0.18	0
bin	0.2	0
bin	0.22	0
bin	0.24	0
bin	0.26	0
bin	0.28	0
bin	0.3	0
bin	0.32	0
bin	0.34	0
bin	0.36	0
bin	0.38	0
bin	0.4	0
bin	0.42	0
bin	0.44	0
bin	0.46	0
bin	0.48	0
bin	0.5	0
scalar FinalTask.DISPRouter.eth[0].mac.queue queueLength:max 104
attr interpolationmode sample-hold
attr source "count(packetPushed) - count(packetPopped) - count(packetRemoved) - count(packetDropped)"
attr title "queue length, max"
scalar FinalTask.DISPRouter.eth[0].mac.queue queueLength:timeavg 1.851820007486e-05
attr interpolationmode sample-hold
attr source "count(packetPushed) - count(packetPopped) - count(packetRemoved) - count(packetDropped)"
attr title "queue length, timeavg"
scalar FinalTask.DISPRouter.eth[0].mac.queue packetPushed:count 283275
attr interpolationmode none
attr title "packet pushed, count"
scalar FinalTask.DISPRouter.eth[0].mac.queue packetPushed:sum(packetBytes) 18282862
attr interpolationmode none
attr title "packet pushed, sum(packetBytes)"
scalar FinalTask.DISPRouter.eth[0].mac.queue packetDropQueueOverflow:count 0
attr interpolationmode none
attr source packetDropReasonIsQueueOverflow(packetDropped)
attr title "packet drops: queue overflow, count"
scalar FinalTask.DISPRouter.eth[0].mac.queue packetDropQueueOverflow:sum(packetBytes) 0
attr interpolationmode none
attr source packetDropReasonIsQueueOverflow(packetDropped)
attr title "packet drops: queue overflow, sum(packetBytes)"
scalar FinalTask.DISPRouter.eth[0].mac.queue packetRemoved:count 0
attr interpolationmode none
attr title "packets removed, count"
scalar FinalTask.DISPRouter.eth[0].mac.queue packetRemoved:sum(packetBytes) 0
attr interpolationmode none
attr title "packets removed, sum(packetBytes)"
scalar FinalTask.DISPRouter.eth[0].mac "simulated time" 2000
scalar FinalTask.DISPRouter.eth[0].mac full-duplex 1
scalar FinalTask.DISPRouter.eth[0].mac "frames/sec sent" 141.6375
scalar FinalTask.DISPRouter.eth[0].mac "frames/sec rcvd" 163.2615
scalar FinalTask.DISPRouter.eth[0].mac "bits/sec sent" 73131.448
scalar FinalTask.DISPRouter.eth[0].mac "bits/sec rcvd" 1963548.012
scalar FinalTask.DISPRouter.eth[0].mac "rx channel idle (%)" 100
scalar FinalTask.DISPRouter.eth[0].mac "rx channel utilization (%)" 0
scalar FinalTask.DISPRouter.eth[0].mac rxPausePkUnits:count 0
attr interpolationmode none
attr title "pause units received, count"
scalar FinalTask.DISPRouter.eth[0].mac rxPausePkUnits:sum 0
attr interpolationmode none
attr title "pause units received, sum"
scalar FinalTask.DISPRouter.eth[0].mac txPausePkUnits:count 0
attr interpolationmode none
attr title "pause units sent, count"
scalar FinalTask.DISPRouter.eth[0].mac txPausePkUnits:sum 0
attr interpolationmode none
attr title "pause units sent, sum"
scalar FinalTask.DISPRouter.eth[0].mac rxPkOk:count 326523
attr interpolationmode none
attr source rxPkOk
attr title "packets received OK, count"
scalar FinalTask.DISPRouter.eth[0].mac rxPkOk:sum(packetBytes) 490887003
attr interpolationmode none
attr source rxPkOk
attr title "packets received OK, sum(packetBytes)"
scalar FinalTask.DISPRouter.eth[0].mac txPk:count 283275
attr interpolationmode none
attr source packetSentToLower
attr title "packets transmitted, count"
scalar FinalTask.DISPRouter.eth[0].mac txPk:sum(packetBytes) 18282862
attr interpolationmode none
attr source packetSentToLower
attr title "packets transmitted, sum(packetBytes)"
scalar FinalTask.DISPRouter.eth[0].mac packetReceivedFromUpper:count 283275
attr interpolationmode none
attr source packetReceivedFromUpper
attr title "packet bytes from higher layer, count"
scalar FinalTask.DISPRouter.eth[0].mac packetReceivedFromUpper:sum(packetBytes) 16590364
attr interpolationmode none
attr source packetReceivedFromUpper
attr title "packet bytes from higher layer, sum(packetBytes)"
scalar FinalTask.DISPRouter.eth[0].mac passedUpPk:count 326523
attr interpolationmode none
attr source packetSentToUpper
attr title "packets passed to higher layer, count"
scalar FinalTask.DISPRouter.eth[0].mac passedUpPk:sum(packetBytes) 490887003
attr interpolationmode none
attr source packetSentToUpper
attr title "packets passed to higher layer, sum(packetBytes)"
scalar FinalTask.DISPRouter.eth[0].mac packetDropIncorrectlyReceived:count 0
attr interpolationmode none
attr source packetDropReasonIsIncorrectlyReceived(packetDropped)
attr title "packet drop: incorrectly received, count"
scalar FinalTask.DISPRouter.eth[0].mac packetDropIncorrectlyReceived:sum(packetBytes) 0
attr interpolationmode none
attr source packetDropReasonIsIncorrectlyReceived(packetDropped)
attr title "packet drop: incorrectly received, sum(packetBytes)"
scalar FinalTask.DISPRouter.eth[0].mac packetDropInterfaceDown:count 0
attr interpolationmode none
attr source packetDropReasonIsInterfaceDown(packetDropped)
attr title "packet drop: interface down, count"
scalar FinalTask.DISPRouter.eth[0].mac packetDropInterfaceDown:sum(packetBytes) 0
attr interpolationmode none
attr source packetDropReasonIsInterfaceDown(packetDropped)
attr title "packet drop: interface down, sum(packetBytes)"
scalar FinalTask.DISPRouter.eth[0].mac packetDropNotAddressedToUs:count 0
attr interpolationmode none
attr source packetDropReasonIsNotAddressedToUs(packetDropped)
attr title "packet drop: not addressed to us, count"
scalar FinalTask.DISPRouter.eth[0].mac packetDropNotAddressedToUs:sum(packetBytes) 0
attr interpolationmode none
attr source packetDropReasonIsNotAddressedToUs(packetDropped)
attr title "packet drop: not addressed to us, sum(packetBytes)"
scalar FinalTask.DISPRouter.eth[0].encap pauseSent:count 0
attr title "pause sent, count"
scalar FinalTask.DISPRouter.eth[0].encap pauseSent:sum 0
attr title "pause sent, sum"
scalar FinalTask.DISPRouter.eth[0].encap decapPk:count 326523
attr interpolationmode none
attr source decapPk
attr title "packets decapsulated, count"
scalar FinalTask.DISPRouter.eth[0].encap decapPk:sum(packetBytes) 485009589
attr interpolationmode none
attr source decapPk
attr title "packets decapsulated, sum(packetBytes)"
scalar FinalTask.DISPRouter.eth[0].encap encapPk:count 283275
attr interpolationmode none
attr source encapPk
attr title "packets encapsulated, count"
scalar FinalTask.DISPRouter.eth[0].encap encapPk:sum(packetBytes) 11491414
attr interpolationmode none
attr source encapPk
attr title "packets encapsulated, sum(packetBytes)"
scalar FinalTask.DISPRouter.eth[1].mac.queue packetPopped:count 1257992
attr interpolationmode none
attr title "packet popped, count"
scalar FinalTask.DISPRouter.eth[1].mac.queue packetPopped:sum(packetBytes) 1906440764
attr interpolationmode none
attr title "packet popped, sum(packetBytes)"
statistic FinalTask.DISPRouter.eth[1].mac.queue queueingTime:histogram
field count 1257992
field mean 2.0747589828512e-06
field stddev 0.00011633554460313
field min 0
field max 0.010205385773
field sum 2.610030202355
field sqrsum 0.017031013722117
attr interpolationmode none
attr source queueingTime(packetPopped)
attr title "queueing times, histogram"
attr unit s
bin	-inf	0
bin	-0.5	0
bin	-0.48	0
bin	-0.46	0
bin	-0.44	0
bin	-0.42	0
bin	-0.4	0
bin	-0.38	0
bin	-0.36	0
bin	-0.34	0
bin	-0.32	0
bin	-0.3	0
bin	-0.28	0
bin	-0.26	0
bin	-0.24	0
bin	-0.22	0
bin	-0.2	0
bin	-0.18	0
bin	-0.16	0
bin	-0.14	0
bin	-0.12	0
bin	-0.1	0
bin	-0.08	0
bin	-0.06	0
bin	-0.04	0
bin	-0.02	0
bin	0	1257992
bin	0.02	0
bin	0.04	0
bin	0.06	0
bin	0.08	0
bin	0.1	0
bin	0.12	0
bin	0.14	0
bin	0.16	0
bin	0.18	0
bin	0.2	0
bin	0.22	0
bin	0.24	0
bin	0.26	0
bin	0.28	0
bin	0.3	0
bin	0.32	0
bin	0.34	0
bin	0.36	0
bin	0.38	0
bin	0.4	0
bin	0.42	0
bin	0.44	0
bin	0.46	0
bin	0.48	0
bin	0.5	0
scalar FinalTask.DISPRouter.eth[1].mac.queue queueLength:max 84
attr interpolationmode sample-hold
attr source "count(packetPushed) - count(packetPopped) - count(packetRemoved) - count(packetDropped)"
attr title "queue length, max"
scalar FinalTask.DISPRouter.eth[1].mac.queue queueLength:timeavg 0.0013050879973309
attr interpolationmode sample-hold
attr source "count(packetPushed) - count(packetPopped) - count(packetRemoved) - count(packetDropped)"
attr title "queue length, timeavg"
scalar FinalTask.DISPRouter.eth[1].mac.queue packetPushed:count 1257992
attr interpolationmode none
attr title "packet pushed, count"
scalar FinalTask.DISPRouter.eth[1].mac.queue packetPushed:sum(packetBytes) 1906440764
attr interpolationmode none
attr title "packet pushed, sum(packetBytes)"
scalar FinalTask.DISPRouter.eth[1].mac.queue packetDropQueueOverflow:count 0
attr interpolationmode none
attr source packetDropReasonIsQueueOverflow(packetDropped)
attr title "packet drops: queue overflow, count"
scalar FinalTask.DISPRouter.eth[1].mac.queue packetDropQueueOverflow:sum(packetBytes) 0
attr interpolationmode none
attr source packetDropReasonIsQueueOverflow(packetDropped)
attr title "packet drops: queue overflow, sum(packetBytes)"
scalar FinalTask.DISPRouter.eth[1].mac.queue packetRemoved:count 0
attr interpolationmode none
attr title "packets removed, count"
scalar FinalTask.DISPRouter.eth[1].mac.queue packetRemoved:sum(packetBytes) 0
attr interpolationmode none
attr title "packets removed, sum(packetBytes)"
scalar FinalTask.DISPRouter.eth[1].mac "simulated time" 2000
scalar FinalTask.DISPRouter.eth[1].mac full-duplex 1
scalar FinalTask.DISPRouter.eth[1].mac "frames/sec sent" 628.9955
scalar FinalTask.DISPRouter.eth[1].mac "frames/sec rcvd" 628.723
scalar FinalTask.DISPRouter.eth[1].mac "bits/sec sent" 7625756.984
scalar FinalTask.DISPRouter.eth[1].mac "bits/sec rcvd" 600695.032
scalar FinalTask.DISPRouter.eth[1].mac "rx channel idle (%)" 100
scalar FinalTask.DISPRouter.eth[1].mac "rx channel utilization (%)" 0
scalar FinalTask.DISPRouter.eth[1].mac rxPausePkUnits:count 0
attr interpolationmode none
attr title "pause units received, count"
scalar FinalTask.DISPRouter.eth[1].mac rxPausePkUnits:sum 0
attr interpolationmode none
attr title "pause units received, sum"
scalar FinalTask.DISPRouter.eth[1].mac txPausePkUnits:count 0
attr interpolationmode none
attr title "pause units sent, count"
scalar FinalTask.DISPRouter.eth[1].mac txPausePkUnits:sum 0
attr interpolationmode none
attr title "pause units sent, sum"
scalar FinalTask.DISPRouter.eth[1].mac rxPkOk:count 1257446
attr interpolationmode none
attr source rxPkOk
attr title "packets received OK, count"
scalar FinalTask.DISPRouter.eth[1].mac rxPkOk:sum(packetBytes) 150173758
attr interpolationmode none
attr source rxPkOk
attr title "packets received OK, sum(packetBytes)"
scalar FinalTask.DISPRouter.eth[1].mac txPk:count 1257991
attr interpolationmode none
attr source packetSentToLower
attr title "packets transmitted, count"
scalar FinalTask.DISPRouter.eth[1].mac txPk:sum(packetBytes) 1906439246
attr interpolationmode none
attr source packetSentToLower
attr title "packets transmitted, sum(packetBytes)"
scalar FinalTask.DISPRouter.eth[1].mac packetReceivedFromUpper:count 1257992
attr interpolationmode none
attr source packetReceivedFromUpper
attr title "packet bytes from higher layer, count"
scalar FinalTask.DISPRouter.eth[1].mac packetReceivedFromUpper:sum(packetBytes) 1906440317
attr interpolationmode none
attr source packetReceivedFromUpper
attr title "packet bytes from higher layer, sum(packetBytes)"
scalar FinalTask.DISPRouter.eth[1].mac passedUpPk:count 1257446
attr interpolationmode none
attr source packetSentToUpper
attr title "packets passed to higher layer, count"
scalar FinalTask.DISPRouter.eth[1].mac passedUpPk:sum(packetBytes) 150173758
attr interpolationmode none
attr source packetSentToUpper
attr title "packets passed to higher layer, sum(packetBytes)"
scalar FinalTask.DISPRouter.eth[1].mac packetDropIncorrectlyReceived:count 0
attr interpolationmode none
attr source packetDropReasonIsIncorrectlyReceived(packetDropped)
attr title "packet drop: incorrectly received, count"
scalar FinalTask.DISPRouter.eth[1].mac packetDropIncorrectlyReceived:sum(packetBytes) 0
attr interpolationmode none
attr source packetDropReasonIsIncorrectlyReceived(packetDropped)
attr title "packet drop: incorrectly received, sum(packetBytes)"
scalar FinalTask.DISPRouter.eth[1].mac packetDropInterfaceDown:count 0
attr interpolationmode none
attr source packetDropReasonIsInterfaceDown(packetDropped)
attr title "packet drop: interface down, count"
scalar FinalTask.DISPRouter.eth[1].mac packetDropInterfaceDown:sum(packetBytes) 0
attr interpolationmode none
attr source packetDropReasonIsInterfaceDown(packetDropped)
attr title "packet drop: interface down, sum(packetBytes)"
scalar FinalTask.DISPRouter.eth[1].mac packetDropNotAddressedToUs:count 0
attr interpolationmode none
attr source packetDropReasonIsNotAddressedToUs(packetDropped)
attr title "packet drop: not addressed to us, count"
scalar FinalTask.DISPRouter.eth[1].mac packetDropNotAddressedToUs:sum(packetBytes) 0
attr interpolationmode none
attr source packetDropReasonIsNotAddressedToUs(packetDropped)
attr title "packet drop: not addressed to us, sum(packetBytes)"
scalar FinalTask.DISPRouter.eth[1].encap pauseSent:count 0
attr title "pause sent, count"
scalar FinalTask.DISPRouter.eth[1].encap pauseSent:sum 0
attr title "pause sent, sum"
scalar FinalTask.DISPRouter.eth[1].encap decapPk:count 1257446
attr interpolationmode none
attr source decapPk
attr title "packets decapsulated, count"
scalar FinalTask.DISPRouter.eth[1].encap decapPk:sum(packetBytes) 127539730
attr interpolationmode none
attr source decapPk
attr title "packets decapsulated, sum(packetBytes)"
scalar FinalTask.DISPRouter.eth[1].encap encapPk:count 1257992
attr interpolationmode none
attr source encapPk
attr title "packets encapsulated, count"
scalar FinalTask.DISPRouter.eth[1].encap encapPk:sum(packetBytes) 1883796461
attr interpolationmode none
attr source encapPk
attr title "packets encapsulated, sum(packetBytes)"
scalar FinalTask.DISPRouter.ipv4.ip packetDropAddressResolutionFailed:count 0
attr interpolationmode none
attr source packetDropReasonIsAddressResolutionFailed(packetDropped)
attr title "packet drop: address resolution failed, count"
scalar FinalTask.DISPRouter.ipv4.ip packetDropAddressResolutionFailed:sum(packetBytes) 0
attr interpolationmode none
attr source packetDropReasonIsAddressResolutionFailed(packetDropped)
attr title "packet drop: address resolution failed, sum(packetBytes)"
scalar FinalTask.DISPRouter.ipv4.ip packetDropHopLimitReached:count 0
attr interpolationmode none
attr source packetDropReasonIsHopLimitReached(packetDropped)
attr title "packet drop: hop limit reached, count"
scalar FinalTask.DISPRouter.ipv4.ip packetDropHopLimitReached:sum(packetBytes) 0
attr interpolationmode none
attr source packetDropReasonIsHopLimitReached(packetDropped)
attr title "packet drop: hop limit reached, sum(packetBytes)"
scalar FinalTask.DISPRouter.ipv4.ip packetDropForwardingDisabled:count 0
attr interpolationmode none
attr source packetDropReasonIsForwardingDisabled(packetDropped)
attr title "packet drop: forwarding disabled, count"
scalar FinalTask.DISPRouter.ipv4.ip packetDropForwardingDisabled:sum(packetBytes) 0
attr interpolationmode none
attr source packetDropReasonIsForwardingDisabled(packetDropped)
attr title "packet drop: forwarding disabled, sum(packetBytes)"
scalar FinalTask.DISPRouter.ipv4.ip packetDropNoInterfaceFound:count 0
attr interpolationmode none
attr source packetDropReasonIsNoInterfaceFound(packetDropped)
attr title "packet drop: no interface found, count"
scalar FinalTask.DISPRouter.ipv4.ip packetDropNoInterfaceFound:sum(packetBytes) 0
attr interpolationmode none
attr source packetDropReasonIsNoInterfaceFound(packetDropped)
attr title "packet drop: no interface found, sum(packetBytes)"
scalar FinalTask.DISPRouter.ipv4.ip packetDropNoRouteFound:count 0
attr interpolationmode none
attr source packetDropReasonIsNoRouteFound(packetDropped)
attr title "packet drop: no route found, count"
scalar FinalTask.DISPRouter.ipv4.ip packetDropNoRouteFound:sum(packetBytes) 0
attr interpolationmode none
attr source packetDropReasonIsNoRouteFound(packetDropped)
attr title "packet drop: no route found, sum(packetBytes)"
scalar FinalTask.DISPRouter.ipv4.ip packetDropUndefined:count 0
attr interpolationmode none
attr source packetDropReasonIsUndefined(packetDropped)
attr title "packet drop: undefined, count"
scalar FinalTask.DISPRouter.ipv4.ip packetDropUndefined:sum(packetBytes) 0
attr interpolationmode none
attr source packetDropReasonIsUndefined(packetDropped)
attr title "packet drop: undefined, sum(packetBytes)"
scalar FinalTask.DISPRouter.ipv4.arp arpResolutionFailed:count 0
attr title "ARP failed resolutions, count"
scalar FinalTask.DISPRouter.ipv4.arp arpResolutionCompleted:count 44
attr title "ARP completed resolutions, count"
scalar FinalTask.DISPRouter.ipv4.arp arpResolutionInitiated:count 23
attr title "ARP initiated resolutions, count"
scalar FinalTask.DISPRouter.ipv4.arp arpReplySent:count 21
attr source arpReplySent
attr title "ARP replies sent, count"
scalar FinalTask.DISPRouter.ipv4.arp arpReplySent:sum(packetBytes) 588
attr source arpReplySent
attr title "ARP replies sent, sum(packetBytes)"
scalar FinalTask.DISPRouter.ipv4.arp arpRequestSent:count 23
attr source arpRequestSent
attr title "ARP request sent, count"
scalar FinalTask.DISPRouter.ipv4.arp arpRequestSent:sum(packetBytes) 644
attr source arpRequestSent
attr title "ARP request sent, sum(packetBytes)"
scalar FinalTask.HTTPServer.lo[0].lo rcvdPkFromHl:count 0
attr interpolationmode none
attr source packetReceivedFromUpper
attr title "packets received from higher layer, count"
scalar FinalTask.HTTPServer.lo[0].lo rcvdPkFromHl:sum(packetBytes) 0
attr interpolationmode none
attr source packetReceivedFromUpper
attr title "packets received from higher layer, sum(packetBytes)"
scalar FinalTask.HTTPServer.lo[0].lo passedUpPk:count 0
attr interpolationmode none
attr source packetSentToUpper
attr title "packets passed to higher layer, count"
scalar FinalTask.HTTPServer.lo[0].lo passedUpPk:sum(packetBytes) 0
attr interpolationmode none
attr source packetSentToUpper
attr title "packets passed to higher layer, sum(packetBytes)"
scalar FinalTask.HTTPServer.eth[0].mac.queue packetPopped:count 326523
attr interpolationmode none
attr title "packet popped, count"
scalar FinalTask.HTTPServer.eth[0].mac.queue packetPopped:sum(packetBytes) 490887003
attr interpolationmode none
attr title "packet popped, sum(packetBytes)"
statistic FinalTask.HTTPServer.eth[0].mac.queue queueingTime:histogram
field count 326523
field mean 0.00021787997134516
field stddev 0.0016400010825857
field min 0
field max 0.03924976
field sum 71.142821883537
field sqrsum 0.89371532663454
attr interpolationmode none
attr source queueingTime(packetPopped)
attr title "queueing times, histogram"
attr unit s
bin	-inf	0
bin	0	321480
bin	0.00064	261
bin	0.00128	225
bin	0.00192	221
bin	0.00256	260
bin	0.0032	217
bin	0.00384	209
bin	0.00448	201
bin	0.00512	196
bin	0.00576	224
bin	0.0064	184
bin	0.00704	174
bin	0.00768	166
bin	0.00832	160
bin	0.00896	188
bin	0.0096	145
bin	0.01024	136
bin	0.01088	129
bin	0.01152	120
bin	0.01216	134
bin	0.0128	95
bin	0.01344	92
bin	0.01408	86
bin	0.01472	83
bin	0.01536	89
bin	0.016	73
bin	0.01664	69
bin	0.01728	62
bin	0.01792	58
bin	0.01856	54
bin	0.0192	41
bin	0.01984	41
bin	0.02048	40
bin	0.02112	36
bin	0.02176	41
bin	0.0224	35
bin	0.02304	38
bin	0.02368	31
bin	0.02432	29
bin	0.02496	30
bin	0.0256	25
bin	0.02624	26
bin	0.02688	25
bin	0.02752	25
bin	0.02816	29
bin	0.0288	26
bin	0.02944	26
bin	0.03008	26
bin	0.03072	25
bin	0.03136	20
bin	0.032	15
bin	0.03264	15
bin	0.03328	15
bin	0.03392	12
bin	0.03456	12
bin	0.0352	10
bin	0.03584	10
bin	0.03648	10
bin	0.03712	5
bin	0.03776	6
bin	0.0384	5
bin	0.03904	2
bin	0.03968	0
scalar FinalTask.HTTPServer.eth[0].mac.queue queueLength:max 319
attr interpolationmode sample-hold
attr source "count(packetPushed) - count(packetPopped) - count(packetRemoved) - count(packetDropped)"
attr title "queue length, max"
scalar FinalTask.HTTPServer.eth[0].mac.queue queueLength:timeavg 0.035583585235262
attr interpolationmode sample-hold
attr source "count(packetPushed) - count(packetPopped) - count(packetRemoved) - count(packetDropped)"
attr title "queue length, timeavg"
scalar FinalTask.HTTPServer.eth[0].mac.queue packetPushed:count 326523
attr interpolationmode none
attr title "packet pushed, count"
[...]
attr title "packets sent: with retry, sum(packetBytes)"
scalar FinalTask.Client[3].wlan[0].mac.dcf packetSentToPeerWithoutRetry:count 216340
attr interpolationmode none
attr source ieee80211NotRetry(packetSentToPeer)
attr title "packets sent: without retry, count"
scalar FinalTask.Client[3].wlan[0].mac.dcf packetSentToPeerWithoutRetry:sum(packetBytes) 7554652
attr interpolationmode none
attr source ieee80211NotRetry(packetSentToPeer)
attr title "packets sent: without retry, sum(packetBytes)"
scalar FinalTask.Client[3].wlan[0].mac.dcf packetDrop:count 8672974
attr interpolationmode none
attr source packetDropped
attr title "packet drops, count"
scalar FinalTask.Client[3].wlan[0].mac.dcf packetDrop:sum(packetBytes) 2537398141
attr interpolationmode none
attr source packetDropped
attr title "packet drops, sum(packetBytes)"
scalar FinalTask.Client[3].wlan[0].mac.dcf packetDropNotAddressedToUs:count 8672974
attr interpolationmode none
attr source packetDropReasonIsNotAddressedToUs(packetDropped)
attr title "packet drops: not addressed to us, count"
scalar FinalTask.Client[3].wlan[0].mac.dcf packetDropNotAddressedToUs:sum(packetBytes) 2537398141
attr interpolationmode none
attr source packetDropReasonIsNotAddressedToUs(packetDropped)
attr title "packet drops: not addressed to us, sum(packetBytes)"
scalar FinalTask.Client[3].wlan[0].mac.dcf packetDropQueueOverflow:count 0
attr interpolationmode none
attr source packetDropReasonIsQueueOverflow(packetDropped)
attr title "packet drops: queue overflow, count"
scalar FinalTask.Client[3].wlan[0].mac.dcf packetDropQueueOverflow:sum(packetBytes) 0
attr interpolationmode none
attr source packetDropReasonIsQueueOverflow(packetDropped)
attr title "packet drops: queue overflow, sum(packetBytes)"
scalar FinalTask.Client[3].wlan[0].mac.dcf packetDropRetryLimitReached:count 0
attr interpolationmode none
attr source packetDropReasonIsRetryLimitReached(packetDropped)
attr title "packet drops: retry limit reached, count"
scalar FinalTask.Client[3].wlan[0].mac.dcf packetDropRetryLimitReached:sum(packetBytes) 0
attr interpolationmode none
attr source packetDropReasonIsRetryLimitReached(packetDropped)
attr title "packet drops: retry limit reached, sum(packetBytes)"
scalar FinalTask.Client[3].wlan[0].mac.dcf linkBroken:count 0
attr interpolationmode none
attr title "link breaks, count"
scalar FinalTask.Client[3].wlan[0].mac packetReceivedFromLower:count 8914534
attr interpolationmode none
attr title "packets received from lower layer, count"
scalar FinalTask.Client[3].wlan[0].mac packetReceivedFromLower:sum(packetBytes) 2656337701
attr interpolationmode none
attr title "packets received from lower layer, sum(packetBytes)"
scalar FinalTask.Client[3].wlan[0].mac packetSentToLower:count 217079
attr interpolationmode none
attr title "packets sent to lower layer, count"
scalar FinalTask.Client[3].wlan[0].mac packetSentToLower:sum(packetBytes) 7612110
attr interpolationmode none
attr title "packets sent to lower layer, sum(packetBytes)"
scalar FinalTask.Client[3].wlan[0].mac packetReceivedFromUpper:count 72345
attr interpolationmode none
attr title "packets received from upper layer, count"
scalar FinalTask.Client[3].wlan[0].mac packetReceivedFromUpper:sum(packetBytes) 3512982
attr interpolationmode none
attr title "packets received from upper layer, sum(packetBytes)"
scalar FinalTask.Client[3].wlan[0].mac packetSentToUpper:count 72583
attr interpolationmode none
attr title "packets sent to upper layer, count"
scalar FinalTask.Client[3].wlan[0].mac packetSentToUpper:sum(packetBytes) 108032878
attr interpolationmode none
attr title "packets sent to upper layer, sum(packetBytes)"
scalar FinalTask.Client[3].wlan[0].mac packetDrop:count 8678104
attr interpolationmode none
attr source packetDropped
attr title "packet drops, count"
scalar FinalTask.Client[3].wlan[0].mac packetDrop:sum(packetBytes) 2542297819
attr interpolationmode none
attr source packetDropped
attr title "packet drops, sum(packetBytes)"
scalar FinalTask.Client[3].wlan[0].mac packetDropIncorrectlyReceived:count 5128
attr interpolationmode none
attr source packetDropReasonIsIncorrectlyReceived(packetDropped)
attr title "packet drops: incorrectly received, count"
scalar FinalTask.Client[3].wlan[0].mac packetDropIncorrectlyReceived:sum(packetBytes) 4899588
attr interpolationmode none
attr source packetDropReasonIsIncorrectlyReceived(packetDropped)
attr title "packet drops: incorrectly received, sum(packetBytes)"
scalar FinalTask.Client[3].wlan[0].mac packetDropNotAddressedToUs:count 8672974
attr interpolationmode none
attr source packetDropReasonIsNotAddressedToUs(packetDropped)
attr title "packet drops: not addressed to us, count"
scalar FinalTask.Client[3].wlan[0].mac packetDropNotAddressedToUs:sum(packetBytes) 2537398141
attr interpolationmode none
attr source packetDropReasonIsNotAddressedToUs(packetDropped)
attr title "packet drops: not addressed to us, sum(packetBytes)"
scalar FinalTask.Client[3].wlan[0].mac packetDropQueueOverflow:count 0
attr interpolationmode none
attr source packetDropReasonIsQueueOverflow(packetDropped)
attr title "packet drops: queue overflow, count"
scalar FinalTask.Client[3].wlan[0].mac packetDropQueueOverflow:sum(packetBytes) 0
attr interpolationmode none
attr source packetDropReasonIsQueueOverflow(packetDropped)
attr title "packet drops: queue overflow, sum(packetBytes)"
scalar FinalTask.Client[3].wlan[0].mac packetDropRetryLimitReached:count 0
attr interpolationmode none
attr source packetDropReasonIsRetryLimitReached(packetDropped)
attr title "packet drops: retry limit reached, count"
scalar FinalTask.Client[3].wlan[0].mac packetDropRetryLimitReached:sum(packetBytes) 0
attr interpolationmode none
attr source packetDropReasonIsRetryLimitReached(packetDropped)
attr title "packet drops: retry limit reached, sum(packetBytes)"
scalar FinalTask.Client[3].wlan[0].mac packetDropDuplicateDetected:count 0
attr interpolationmode none
attr source packetDropReasonIsDuplicateDetected(packetDropped)
attr title "packet drops: duplicate detected, count"
scalar FinalTask.Client[3].wlan[0].mac packetDropDuplicateDetected:sum(packetBytes) 0
attr interpolationmode none
attr source packetDropReasonIsDuplicateDetected(packetDropped)
attr title "packet drops: duplicate detected, sum(packetBytes)"
scalar FinalTask.Client[3].wlan[0].mac packetDropOther:count 2
attr interpolationmode none
attr source packetDropReasonIsOther(packetDropped)
attr title "packet drops: other, count"
scalar FinalTask.Client[3].wlan[0].mac packetDropOther:sum(packetBytes) 90
attr interpolationmode none
attr source packetDropReasonIsOther(packetDropped)
attr title "packet drops: other, sum(packetBytes)"
scalar FinalTask.Client[3].wlan[0].mac linkBroken:count 0
attr interpolationmode none
attr title "link breaks, count"
statistic FinalTask.Client[3].wlan[0].radio radioChannel:histogram
field count 4
field mean 0
field stddev 0
field min 0
field max 0
field sum 0
field sqrsum 0
attr interpolationmode sample-hold
attr source radioChannelChanged
attr title "Radio channel, histogram"
bin	-inf	0
bin	-0.5	0
bin	-0.48	0
bin	-0.46	0
bin	-0.44	0
bin	-0.42	0
bin	-0.4	0
bin	-0.38	0
bin	-0.36	0
bin	-0.34	0
bin	-0.32	0
bin	-0.3	0
bin	-0.28	0
bin	-0.26	0
bin	-0.24	0
bin	-0.22	0
bin	-0.2	0
bin	-0.18	0
bin	-0.16	0
bin	-0.14	0
bin	-0.12	0
bin	-0.1	0
bin	-0.08	0
bin	-0.06	0
bin	-0.04	0
bin	-0.02	0
bin	0	4
bin	0.02	0
bin	0.04	0
bin	0.06	0
bin	0.08	0
bin	0.1	0
bin	0.12	0
bin	0.14	0
bin	0.16	0
bin	0.18	0
bin	0.2	0
bin	0.22	0
bin	0.24	0
bin	0.26	0
bin	0.28	0
bin	0.3	0
bin	0.32	0
bin	0.34	0
bin	0.36	0
bin	0.38	0
bin	0.4	0
bin	0.42	0
bin	0.44	0
bin	0.46	0
bin	0.48	0
bin	0.5	0
scalar FinalTask.Client[3].wlan[0].radio radioMode:count 434161
attr interpolationmode sample-hold
attr source radioModeChanged
attr title "Radio mode, count"
scalar FinalTask.Client[3].wlan[0].radio receptionState:count 18266203
attr interpolationmode sample-hold
attr source receptionStateChanged
attr title "Radio reception state, count"
scalar FinalTask.Client[3].wlan[0].radio transmissionState:count 868316
attr interpolationmode sample-hold
attr source transmissionStateChanged
attr title "Radio transmission state, count"
statistic FinalTask.Client[3].wlan[0].radio minSnir:histogram
field count 8914534
field mean 168255.75730097
field stddev 66865.773831031
field min 0.19698100733007
field max 230303.07683659
field sum 1499921669155.2
field sqrsum 2.9222761605888e+17
attr source minimumSnir(packetSentToUpper)
attr title "Min SNIR, histogram"
bin	-inf	0
bin	0	5130
bin	5000	0
bin	10000	310875
bin	15000	0
bin	20000	0
bin	25000	0
bin	30000	0
bin	35000	0
bin	40000	0
bin	45000	211367
bin	50000	0
bin	55000	0
bin	60000	0
bin	65000	0
bin	70000	0
bin	75000	0
bin	80000	0
bin	85000	0
bin	90000	0
bin	95000	0
bin	100000	0
bin	105000	0
bin	110000	3814247
bin	115000	0
bin	120000	0
bin	125000	0
bin	130000	0
bin	135000	0
bin	140000	0
bin	145000	0
bin	150000	0
bin	155000	0
bin	160000	0
bin	165000	0
bin	170000	0
bin	175000	0
bin	180000	0
bin	185000	0
bin	190000	0
bin	195000	0
bin	200000	0
bin	205000	0
bin	210000	0
bin	215000	0
bin	220000	0
bin	225000	0
bin	230000	4572915
bin	235000	0
bin	240000	0
bin	245000	0
bin	250000	0
bin	255000	0
bin	260000	0
bin	265000	0
bin	270000	0
bin	275000	0
bin	280000	0
bin	285000	0
statistic FinalTask.Client[3].wlan[0].radio packetErrorRate:histogram
field count 8914534
field mean 0.00057524821815091
field stddev 0.02397727706752
field min 0
field max 1
field sum 5128.0697991457
field sqrsum 5128.0024359604
attr source packetErrorRate(packetSentToUpper)
attr title "Packet error rate, histogram"
bin	-inf	0
bin	-0.5	0
bin	-0.48	0
bin	-0.46	0
bin	-0.44	0
bin	-0.42	0
bin	-0.4	0
bin	-0.38	0
bin	-0.36	0
bin	-0.34	0
bin	-0.32	0
bin	-0.3	0
bin	-0.28	0
bin	-0.26	0
bin	-0.24	0
bin	-0.22	0
bin	-0.2	0
bin	-0.18	0
bin	-0.16	0
bin	-0.14	0
bin	-0.12	0
bin	-0.1	0
bin	-0.08	0
bin	-0.06	0
bin	-0.04	0
bin	-0.02	0
bin	0	8909404
bin	0.02	2
bin	0.04	0
bin	0.06	0
bin	0.08	0
bin	0.1	0
bin	0.12	0
bin	0.14	0
bin	0.16	0
bin	0.18	0
bin	0.2	0
bin	0.22	0
bin	0.24	0
bin	0.26	0
bin	0.28	0
bin	0.3	0
bin	0.32	0
bin	0.34	0
bin	0.36	0
bin	0.38	0
bin	0.4	0
bin	0.42	0
bin	0.44	0
bin	0.46	0
bin	0.48	0
bin	0.5	0
bin	0.52	0
bin	0.54	0
bin	0.56	0
bin	0.58	0
bin	0.6	0
bin	0.62	0
bin	0.64	0
bin	0.66	0
bin	0.68	0
bin	0.7	0
bin	0.72	0
bin	0.74	0
bin	0.76	0
bin	0.78	0
bin	0.8	0
bin	0.82	0
bin	0.84	0
bin	0.86	0
bin	0.88	0
bin	0.9	0
bin	0.92	0
bin	0.94	0
bin	0.96	0
bin	0.98	0
bin	1	5128
bin	1.02	0
statistic FinalTask.Client[3].wlan[0].radio bitErrorRate:histogram
field count 0
field mean -nan
field stddev -nan
field min -nan
field max -nan
field sum 0
field sqrsum 0
attr source bitErrorRate(packetSentToUpper)
attr title "Bit error rate, histogram"
bin	-inf	0
bin	0	0
bin	1	0
statistic FinalTask.Client[3].wlan[0].radio symbolErrorRate:histogram
field count 0
field mean -nan
field stddev -nan
field min -nan
field max -nan
field sum 0
field sqrsum 0
attr source symbolErrorRate(packetSentToUpper)
attr title "Symbol error rate, histogram"
bin	-inf	0
bin	0	0
bin	1	0
scalar FinalTask.Client[3].ipv4.ip packetDropAddressResolutionFailed:count 0
attr interpolationmode none
attr source packetDropReasonIsAddressResolutionFailed(packetDropped)
attr title "packet drop: address resolution failed, count"
scalar FinalTask.Client[3].ipv4.ip packetDropAddressResolutionFailed:sum(packetBytes) 0
attr interpolationmode none
attr source packetDropReasonIsAddressResolutionFailed(packetDropped)
attr title "packet drop: address resolution failed, sum(packetBytes)"
scalar FinalTask.Client[3].ipv4.ip packetDropHopLimitReached:count 0
attr interpolationmode none
attr source packetDropReasonIsHopLimitReached(packetDropped)
attr title "packet drop: hop limit reached, count"
scalar FinalTask.Client[3].ipv4.ip packetDropHopLimitReached:sum(packetBytes) 0
attr interpolationmode none
attr source packetDropReasonIsHopLimitReached(packetDropped)
attr title "packet drop: hop limit reached, sum(packetBytes)"
scalar FinalTask.Client[3].ipv4.ip packetDropForwardingDisabled:count 0
attr interpolationmode none
attr source packetDropReasonIsForwardingDisabled(packetDropped)
attr title "packet drop: forwarding disabled, count"
scalar FinalTask.Client[3].ipv4.ip packetDropForwardingDisabled:sum(packetBytes) 0
attr interpolationmode none
attr source packetDropReasonIsForwardingDisabled(packetDropped)
attr title "packet drop: forwarding disabled, sum(packetBytes)"
scalar FinalTask.Client[3].ipv4.ip packetDropNoInterfaceFound:count 0
attr interpolationmode none
attr source packetDropReasonIsNoInterfaceFound(packetDropped)
attr title "packet drop: no interface found, count"
scalar FinalTask.Client[3].ipv4.ip packetDropNoInterfaceFound:sum(packetBytes) 0
attr interpolationmode none
attr source packetDropReasonIsNoInterfaceFound(packetDropped)
attr title "packet drop: no interface found, sum(packetBytes)"
scalar FinalTask.Client[3].ipv4.ip packetDropNoRouteFound:count 0
attr interpolationmode none
attr source packetDropReasonIsNoRouteFound(packetDropped)
attr title "packet drop: no route found, count"
scalar FinalTask.Client[3].ipv4.ip packetDropNoRouteFound:sum(packetBytes) 0
attr interpolationmode none
attr source packetDropReasonIsNoRouteFound(packetDropped)
attr title "packet drop: no route found, sum(packetBytes)"
scalar FinalTask.Client[3].ipv4.ip packetDropUndefined:count 0
attr interpolationmode none
attr source packetDropReasonIsUndefined(packetDropped)
attr title "packet drop: undefined, count"
scalar FinalTask.Client[3].ipv4.ip packetDropUndefined:sum(packetBytes) 0
attr interpolationmode none
attr source packetDropReasonIsUndefined(packetDropped)
attr title "packet drop: undefined, sum(packetBytes)"
scalar FinalTask.Client[3].ipv4.arp arpResolutionFailed:count 0
attr title "ARP failed resolutions, count"
scalar FinalTask.Client[3].ipv4.arp arpResolutionCompleted:count 96
attr title "ARP completed resolutions, count"
scalar FinalTask.Client[3].ipv4.arp arpResolutionInitiated:count 1
attr title "ARP initiated resolutions, count"
scalar FinalTask.Client[3].ipv4.arp arpReplySent:count 16
attr source arpReplySent
attr title "ARP replies sent, count"
scalar FinalTask.Client[3].ipv4.arp arpReplySent:sum(packetBytes) 448
attr source arpReplySent
attr title "ARP replies sent, sum(packetBytes)"
scalar FinalTask.Client[3].ipv4.arp arpRequestSent:count 1
attr source arpRequestSent
attr title "ARP request sent, count"
scalar FinalTask.Client[3].ipv4.arp arpRequestSent:sum(packetBytes) 28
attr source arpRequestSent
attr title "ARP request sent, sum(packetBytes)"
scalar FinalTask.Client[3].udp packetReceived:count 0
attr interpolationmode none
attr source packetReceived
attr title "packets received, count"
scalar FinalTask.Client[3].udp packetReceived:sum(packetBytes) 0
attr interpolationmode none
attr source packetReceived
attr title "packets received, sum(packetBytes)"
scalar FinalTask.Client[3].udp packetSent:count 0
attr interpolationmode none
attr source packetSent
attr title "packets sent, count"
scalar FinalTask.Client[3].udp packetSent:sum(packetBytes) 0
attr interpolationmode none
attr source packetSent
attr title "packets sent, sum(packetBytes)"
scalar FinalTask.Client[3].udp passedUpPk:count 0
attr interpolationmode none
attr source packetSentToUpper
attr title "packets passed up, count"
scalar FinalTask.Client[3].udp droppedPkWrongPort:count 0
attr interpolationmode none
attr source packetDropReasonIsNoPortFound(packetDropped)
attr title "packets dropped (wrong port), count"
scalar FinalTask.Client[3].udp droppedPkBadChecksum:count 0
attr interpolationmode none
attr source packetDropReasonIsIncorrectlyReceived(packetDropped)
attr title "packets dropped (checksum error), count"
scalar FinalTask.Client[3].app[0] packetReceived:count 54329
attr interpolationmode none
attr source packetReceived
attr title "packets received, count"
scalar FinalTask.Client[3].app[0] packetReceived:sum(packetBytes) 102383285
attr interpolationmode none
attr source packetReceived
attr title "packets received, sum(packetBytes)"
statistic FinalTask.Client[3].app[0] endToEndDelay:histogram
field count 139893
field mean 3.1237425841165
field stddev 3.3452183148924
field min 0.060713781675
field max 19.664701921635
field sum 436989.72131981
field sqrsum 2930502.8092667
attr interpolationmode none
attr source dataAge(packetReceived)
attr title "end-to-end delay, histogram"
attr unit s
bin	-inf	0
bin	0	2074
bin	0.4	16998
bin	0.8	54576
bin	1.2	6404
bin	1.6	3522
bin	2	3273
bin	2.4	3194
bin	2.8	2836
bin	3.2	3420
bin	3.6	3991
bin	4	3510
bin	4.4	3419
bin	4.8	2925
bin	5.2	2338
bin	5.6	1906
bin	6	1825
bin	6.4	1757
bin	6.8	1527
bin	7.2	1549
bin	7.6	1825
bin	8	1706
bin	8.4	1917
bin	8.8	1904
bin	9.2	1618
bin	9.6	1596
bin	10	1016
bin	10.4	1082
bin	10.8	928
bin	11.2	940
bin	11.6	941
bin	12	586
bin	12.4	508
bin	12.8	298
bin	13.2	339
bin	13.6	365
bin	14	340
bin	14.4	383
bin	14.8	303
bin	15.2	200
bin	15.6	6
bin	16	17
bin	16.4	0
bin	16.8	0
bin	17.2	0
bin	17.6	0
bin	18	0
bin	18.4	0
bin	18.8	2
bin	19.2	26
bin	19.6	3
bin	20	0
statistic FinalTask.Client[3].app[0] endToEndDelay:weightedHistogram
field count 139893
field mean 3.1301619966611
field stddev 3.3446611805975
field min 0.060713781675
field max 19.664701921635
field weights 819066280
field weightedSum 2563810142.4026
field sqrSumWeights 11682703066176
field weightedSqrSum 17187678111.332
attr interpolationmode none
attr source dataAge(packetReceived)
attr title "end-to-end delay, weightedHistogram"
attr unit s
bin	-inf	0
bin	0	12112160
bin	0.4	99268320
bin	0.8	318723840
bin	1.2	37404248
bin	1.6	20568480
bin	2	19114320
bin	2.4	18661480
bin	2.8	16562240
bin	3.2	19978208
bin	3.6	23304136
bin	4	20539000
bin	4.4	20041984
bin	4.8	18775968
bin	5.2	13653320
bin	5.6	11123560
bin	6	10648720
bin	6.4	10264616
bin	6.8	8913400
bin	7.2	9049800
bin	7.6	10659928
bin	8	9967168
bin	8.4	11202304
bin	8.8	11134008
bin	9.2	9455040
bin	9.6	9320736
bin	10	5930872
bin	10.4	6319872
bin	10.8	5719072
bin	11.2	5486160
bin	11.6	5480544
bin	12	3421880
bin	12.4	2954192
bin	12.8	1744440
bin	13.2	1974184
bin	13.6	2136560
bin	14	1975728
bin	14.4	2236776
bin	14.8	1764176
bin	15.2	1161528
bin	15.6	35040
bin	16	96952
bin	16.4	0
bin	16.8	0
bin	17.2	0
bin	17.6	0
bin	18	0
bin	18.4	0
bin	18.8	11680
bin	19.2	151840
bin	19.6	17800
bin	20	0
scalar FinalTask.Client[3].app[0] packetSent:count 155
attr interpolationmode none
attr source packetSent
attr title "packets sent, count"
scalar FinalTask.Client[3].app[0] packetSent:sum(packetBytes) 39370
attr interpolationmode none
attr source packetSent
attr title "packets sent, sum(packetBytes)"
scalar FinalTask.Client[3].app[0] numActiveSessions:max 1
attr interpolationmode sample-hold
attr source sum(connect)
attr title "number of active sessions, max"
scalar FinalTask.Client[3].app[0] numActiveSessions:timeavg 0.02278292748895
attr interpolationmode sample-hold
attr source sum(connect)
attr title "number of active sessions, timeavg"
scalar FinalTask.Client[3].app[0] numSessions:last 155
attr source sum(connect+1)/2
attr title "total number of sessions, last"
scalar FinalTask.radioMedium.propagation "Arrival computation count" 54824928
scalar FinalTask.radioMedium "transmission count" 9137488
scalar FinalTask.radioMedium "signal send count" 54824928
scalar FinalTask.radioMedium "reception computation count" 54824928
scalar FinalTask.radioMedium "interference computation count" 173536299
scalar FinalTask.radioMedium "reception decision computation count" 54783803
scalar FinalTask.radioMedium "listening decision computation count" 63939336
scalar FinalTask.radioMedium "reception cache hit" 85.710764438409
attr unit %
scalar FinalTask.radioMedium "interference cache hit" 66.666666666667
attr unit %
scalar FinalTask.radioMedium "noise cache hit" 0
attr unit %
scalar FinalTask.radioMedium "snir cache hit" 50
attr unit %
scalar FinalTask.radioMedium "reception decision cache hit" 50
attr unit %
scalar FinalTask.radioMedium "reception result cache hit" 0
attr unit %

