version 2
run VC_with_FTP_and_HTTP-22-20200817-12:15:06-28705
attr configname VC_with_FTP_and_HTTP
attr datetime 20200817-12:15:06
attr experiment VC_with_FTP_and_HTTP
attr inifile omnetpp.ini
attr iterationvars $time=2000
attr iterationvarsf time=2000-
attr measurement $time=2000
attr network FinalTask
attr processid 28705
attr repetition 22
attr replication #22
attr resultdir results
attr runnumber 22
attr seedset 22
itervar time 2000
param **.FTPUploadStudent.numApps 1
param **.FTPUploadStudent.app[0].typename "\"TcpSessionApp\""
param **.FTPUploadStudent.app[0].active true
param **.FTPUploadStudent.app[0].connectAddress "\"FTPServer\""
param **.FTPUploadStudent.app[0].connectPort 21
param **.FTPUploadStudent.app[0].sendBytes "2000000000 B"
param **.Client[*].numApps 1
param **.Client[*].app[0].typename "\"TcpBasicClientApp\""
param **.Client[*].app[0].connectAddress "\"HTTPServer\""
param **.Client[*].app[0].connectPort 10021
param **.Client[*].app[0].replyLength "1B * int(truncnormal(658800,64400))"
param **.Client[*].app[0].requestLength 254B
param **.Client[*].app[0].idleInterval 3s
param **.Client[*].app[0].thinkTime 0s
param **.Client[*].app[0].startTime uniform(0s,1s)
param **.ppp[*].ppp.queue.typename "\"DropTailQueue\""
param **.LISPRouter.ppp[*].ppp.queue.packetCapacity 70
param **.LRouter.ppp[*].ppp.queue.packetCapacity 70
param **.DISPRouter.ppp[*].ppp.queue.packetCapacity 70
param **.DRouter.ppp[*].ppp.queue.packetCapacity 70
param **.opMode "\"g(mixed)\""
param **.channelNumber 0
param **.wlan[*].bitrate 54Mbps
param **.wlan[*].mac.dcf.rtsPolicy.rtsThreshold 3000B
param **.address "\"auto\""
param **.constraintAreaMinX 0m
param **.constraintAreaMinY 0m
param **.constraintAreaMinZ 0m
param **.constraintAreaMaxX 250m
param **.constraintAreaMaxY 30m
param **.constraintAreaMaxZ 0m
param **.AP.mobility.typename "\"StationaryMobility\""
param **.AP.mobility.initialX 125m
param **.AP.mobility.initialY 15m
param **.AP.mobility.initialZ 0m
param **.initFromDisplayString false
param **.tcp.typename "\"Tcp\""
param **.tcpAlgorithmClass "\"TcpNewReno\""
param **.tcp.mss 1460
param **.dataTransferMode "\"object\""
param **.tcp.advertisedWindow "1000 * this.mss"
param **.tcp.windowScalingSupport true
param **.FTPServer.numApps 1
param **.FTPServer.app[0].typename "\"TcpSinkApp\""
param **.FTPServer.app[0].localPort 21
param **.HTTPServer.numApps 1
param **.HTTPServer.app[0].typename "\"TcpGenericServerApp\""
param **.HTTPServer.app[0].localPort 10021
param **.Professor.numApps 1
param **.Student.numApps 1
param **.Professor.app[0].typename "\"VideoConfApp\""
param **.Professor.app[0].destPort 100
param **.Professor.app[0].localPort 100
param **.Professor.app[0].messageLength "1400B + 12B"
param **.Professor.app[0].sendInterval 0.04s
param **.Student.app[0].typename "\"VideoConfApp\""
param **.Student.app[0].destPort 100
param **.Student.app[0].localPort 100
param **.Student.app[0].messageLength "1400B + 12B"
param **.Student.app[0].sendInterval 0.04s
param **.Professor.app[0].destAddresses "\"Student\""
param **.Student.app[0].destAddresses "\"Professor\""

scalar FinalTask.AP.ethg$o[0].channel throughput:last 7737079.3824387
attr source sumPerDuration(packetBits(messageSent))
attr unit bps
scalar FinalTask.DRouter.pppg$o[0].channel throughput:last 7613504.7743432
attr source sumPerDuration(packetBits(messageSent))
attr unit bps
scalar FinalTask.DRouter.ethg$o[0].channel throughput:last 2591966.8548351
attr source sumPerDuration(packetBits(messageSent))
attr unit bps
scalar FinalTask.DISPRouter.pppg$o[0].channel throughput:last 2443009.496231
attr source sumPerDuration(packetBits(messageSent))
attr unit bps
scalar FinalTask.DISPRouter.ethg$o[0].channel throughput:last 81546.328406903
attr source sumPerDuration(packetBits(messageSent))
attr unit bps
scalar FinalTask.DISPRouter.ethg$o[1].channel throughput:last 7655518.9460507
attr source sumPerDuration(packetBits(messageSent))
attr unit bps
scalar FinalTask.HTTPServer.ethg$o[0].channel throughput:last 1951571.6200366
attr source sumPerDuration(packetBits(messageSent))
attr unit bps
scalar FinalTask.LISPRouter.pppg$o[0].channel throughput:last 7556748.731536
attr source sumPerDuration(packetBits(messageSent))
attr unit bps
scalar FinalTask.LISPRouter.ethg$o[0].channel throughput:last 640448.89853265
attr source sumPerDuration(packetBits(messageSent))
attr unit bps
scalar FinalTask.LRouter.pppg$o[0].channel throughput:last 516069.51298433
attr source sumPerDuration(packetBits(messageSent))
attr unit bps
scalar FinalTask.LRouter.ethg$o[0].channel throughput:last 7359051.7697364
attr source sumPerDuration(packetBits(messageSent))
attr unit bps
scalar FinalTask.LRouter.ethg$o[1].channel throughput:last 293135.26447269
attr source sumPerDuration(packetBits(messageSent))
attr unit bps
scalar FinalTask.FTPServer.ethg$o[0].channel throughput:last 347252.04226743
attr source sumPerDuration(packetBits(messageSent))
attr unit bps
scalar FinalTask.Professor.ethg$o[0].channel throughput:last 293204.896
attr source sumPerDuration(packetBits(messageSent))
attr unit bps
scalar FinalTask.AP.relayUnit "number of received BPDUs from STP module" 0
scalar FinalTask.AP.relayUnit "number of received frames from network (including BPDUs)" 3115699
scalar FinalTask.AP.relayUnit "number of dropped frames (including BPDUs)" 0
scalar FinalTask.AP.relayUnit "number of delivered BPDUs to the STP module" 0
scalar FinalTask.AP.relayUnit "number of dispatched BPDU frames to the network" 0
scalar FinalTask.AP.relayUnit "number of dispatched non-BDPU frames to the network" 3115699
scalar FinalTask.AP.wlan[0].mac.dcf.channelAccess.pendingQueue packetPopped:count 1539972
attr interpolationmode none
attr title "packet popped, count"
scalar FinalTask.AP.wlan[0].mac.dcf.channelAccess.pendingQueue packetPopped:sum(packetBytes) 599224849
attr interpolationmode none
attr title "packet popped, sum(packetBytes)"
statistic FinalTask.AP.wlan[0].mac.dcf.channelAccess.pendingQueue queueingTime:histogram
field count 1539972
field mean 0.013410793636917
field stddev 0.026405315312007
field min 0
field max 1.464625907371
field sum 20652.24669863
field sqrsum 1350.6934407932
attr interpolationmode none
attr source queueingTime(packetPopped)
attr title "queueing times, histogram"
attr unit s
bin	-inf	0
bin	0	1253014
bin	0.02	80694
bin	0.04	50653
bin	0.06	58035
bin	0.08	85044
bin	0.1	12462
bin	0.12	64
bin	0.14	0
bin	0.16	0
bin	0.18	0
bin	0.2	0
bin	0.22	0
bin	0.24	0
bin	0.26	0
bin	0.28	0
bin	0.3	0
bin	0.32	0
bin	0.34	0
bin	0.36	0
bin	0.38	0
bin	0.4	0
bin	0.42	0
bin	0.44	0
bin	0.46	0
bin	0.48	0
bin	0.5	0
bin	0.52	0
bin	0.54	0
bin	0.56	0
bin	0.58	0
bin	0.6	0
bin	0.62	0
bin	0.64	0
bin	0.66	0
bin	0.68	0
bin	0.7	0
bin	0.72	0
bin	0.74	0
bin	0.76	0
bin	0.78	0
bin	0.8	0
bin	0.82	0
bin	0.84	1
bin	0.86	0
bin	0.88	0
bin	0.9	0
bin	0.92	0
bin	0.94	0
bin	0.96	0
bin	0.98	0
bin	1	1
bin	1.02	0
bin	1.04	1
bin	1.06	0
bin	1.08	0
bin	1.1	0
bin	1.12	0
bin	1.14	1
bin	1.16	0
bin	1.18	0
bin	1.2	0
bin	1.22	1
bin	1.24	0
bin	1.26	0
bin	1.28	0
bin	1.3	0
bin	1.32	0
bin	1.34	0
bin	1.36	0
bin	1.38	0
bin	1.4	0
bin	1.42	0
bin	1.44	0
bin	1.46	1
bin	1.48	0
bin	1.5	0
bin	1.52	0
bin	1.54	0
bin	1.56	0
bin	1.58	0
bin	1.6	0
bin	1.62	0
bin	1.64	0
bin	1.66	0
bin	1.68	0
bin	1.7	0
bin	1.72	0
bin	1.74	0
bin	1.76	0
bin	1.78	0
bin	1.8	0
bin	1.82	0
bin	1.84	0
scalar FinalTask.AP.wlan[0].mac.dcf.channelAccess.pendingQueue queueLength:max 101
attr interpolationmode sample-hold
attr source "count(packetPushed) - count(packetPopped) - count(packetRemoved) - count(packetDropped)"
attr title "queue length, max"
scalar FinalTask.AP.wlan[0].mac.dcf.channelAccess.pendingQueue queueLength:timeavg 10.322918762013
attr interpolationmode sample-hold
attr source "count(packetPushed) - count(packetPopped) - count(packetRemoved) - count(packetDropped)"
attr title "queue length, timeavg"
scalar FinalTask.AP.wlan[0].mac.dcf.channelAccess.pendingQueue packetPushed:count 1598383
attr interpolationmode none
attr title "packet pushed, count"
scalar FinalTask.AP.wlan[0].mac.dcf.channelAccess.pendingQueue packetPushed:sum(packetBytes) 664736491
attr interpolationmode none
attr title "packet pushed, sum(packetBytes)"
scalar FinalTask.AP.wlan[0].mac.dcf.channelAccess.pendingQueue packetDropQueueOverflow:count 58408
attr interpolationmode none
attr source packetDropReasonIsQueueOverflow(packetDropped)
attr title "packet drops: queue overflow, count"
scalar FinalTask.AP.wlan[0].mac.dcf.channelAccess.pendingQueue packetDropQueueOverflow:sum(packetBytes) 65511396
attr interpolationmode none
attr source packetDropReasonIsQueueOverflow(packetDropped)
attr title "packet drops: queue overflow, sum(packetBytes)"
scalar FinalTask.AP.wlan[0].mac.dcf.channelAccess.pendingQueue packetRemoved:count 0
attr interpolationmode none
attr title "packets removed, count"
scalar FinalTask.AP.wlan[0].mac.dcf.channelAccess.pendingQueue packetRemoved:sum(packetBytes) 0
attr interpolationmode none
attr title "packets removed, sum(packetBytes)"
statistic FinalTask.AP.wlan[0].mac.dcf.channelAccess.inProgressFrames queueingTime:histogram
field count 1817740
field mean 0.00071014500527599
field stddev 0.00054679079491553
field min 3.8e-05
field max 0.00549852071
field sum 1290.8589818904
field sqrsum 1.4601649799289
attr interpolationmode none
attr source queueingTime(packetDequeued)
attr title "queueing times, histogram"
bin	-inf	0
bin	0	8710
bin	8e-05	418811
bin	0.00016	24542
bin	0.00024	157900
bin	0.00032	99130
bin	0.0004	68007
bin	0.00048	70278
bin	0.00056	65375
bin	0.00064	62627
bin	0.00072	70662
bin	0.0008	75249
bin	0.00088	82145
bin	0.00096	85663
bin	0.00104	88009
bin	0.00112	89203
bin	0.0012	82473
bin	0.00128	38831
bin	0.00136	38036
bin	0.00144	36837
bin	0.00152	38875
bin	0.0016	35920
bin	0.00168	22335
bin	0.00176	8506
bin	0.00184	8916
bin	0.00192	9515
bin	0.002	9507
bin	0.00208	7932
bin	0.00216	1817
bin	0.00224	1930
bin	0.00232	1897
bin	0.0024	2118
bin	0.00248	1574
bin	0.00256	1081
bin	0.00264	506
bin	0.00272	493
bin	0.0028	450
bin	0.00288	467
bin	0.00296	346
bin	0.00304	187
bin	0.00312	136
bin	0.0032	107
bin	0.00328	116
bin	0.00336	95
bin	0.00344	90
bin	0.00352	67
bin	0.0036	44
bin	0.00368	37
bin	0.00376	38
bin	0.00384	27
bin	0.00392	22
bin	0.004	21
bin	0.00408	21
bin	0.00416	10
bin	0.00424	10
bin	0.00432	3
bin	0.0044	7
bin	0.00448	6
bin	0.00456	6
bin	0.00464	5
bin	0.00472	2
bin	0.0048	2
bin	0.00488	0
bin	0.00496	0
bin	0.00504	2
bin	0.00512	2
bin	0.0052	2
bin	0.00528	0
bin	0.00536	1
bin	0.00544	1
bin	0.00552	0
scalar FinalTask.AP.wlan[0].mac.dcf.channelAccess.inProgressFrames queueLength:max 3
attr interpolationmode sample-hold
attr source "count(packetEnqueued) - count(packetDequeued)"
attr title "queue length, max"
scalar FinalTask.AP.wlan[0].mac.dcf.channelAccess.inProgressFrames queueLength:timeavg 0.64543581155475
attr interpolationmode sample-hold
attr source "count(packetEnqueued) - count(packetDequeued)"
attr title "queue length, timeavg"
scalar FinalTask.AP.wlan[0].mac.dcf.channelAccess.contention channelAccessGranted:count 1543484
attr title "channel access granted, count"
scalar FinalTask.AP.wlan[0].mac.dcf.channelAccess.contention stateChanged:count 24660216
attr interpolationmode none
attr title "contention state changed, count"
scalar FinalTask.AP.wlan[0].mac.dcf.channelAccess channelOwnershipChanged:count 3086968
attr interpolationmode sample-hold
attr title "channel ownership, count"
scalar FinalTask.AP.wlan[0].mac.dcf.originatorMacDataService packetAggregated:count 0
attr title "packets aggregated, count"
scalar FinalTask.AP.wlan[0].mac.dcf.originatorMacDataService packetFragmented:count 277769
attr title "packets fragmented, count"
scalar FinalTask.AP.wlan[0].mac.dcf.recipientMacDataService packetDeaggregated:count 0
attr title "packets deaggregated, count"
scalar FinalTask.AP.wlan[0].mac.dcf.recipientMacDataService packetDefragmented:count 1537370
attr title "packets defragmented, count"
scalar FinalTask.AP.wlan[0].mac.dcf.recipientMacDataService packetDropDuplicateDetected:count 0
attr interpolationmode none
attr source packetDropReasonIsDuplicateDetected(packetDropped)
attr title "packet drops: duplicate detected, count"
scalar FinalTask.AP.wlan[0].mac.dcf.recipientMacDataService packetDropDuplicateDetected:sum(packetBytes) 0
attr interpolationmode none
attr source packetDropReasonIsDuplicateDetected(packetDropped)
attr title "packet drops: duplicate detected, sum(packetBytes)"
scalar FinalTask.AP.wlan[0].mac.dcf.recoveryProcedure retryLimitReached:count 0
attr title "retry limit reached, count"
scalar FinalTask.AP.wlan[0].mac.dcf frameSequenceFinished:count 1543484
attr title "finished frame sequences, count"
statistic FinalTask.AP.wlan[0].mac.dcf frameSequenceDuration:histogram
field count 1543484
field mean 0.00014685315618305
field stddev 0.00011834602618162
field min 3.8e-05
field max 0.000387203336
field sum 226.66549691804
field sqrsum 0.054904229904606
attr source frameSequenceDuration(frameSequenceFinished)
attr title "frame sequence durations, histogram"
bin	-inf	0
bin	0	0
bin	1e-05	0
bin	2e-05	0
bin	3e-05	6
bin	4e-05	20097
bin	5e-05	0
bin	6e-05	0
bin	7e-05	0
bin	8e-05	1191685
bin	9e-05	2056
bin	0.0001	23
bin	0.00011	50
bin	0.00012	31
bin	0.00013	36
bin	0.00014	18
bin	0.00015	33
bin	0.00016	19
bin	0.00017	37
bin	0.00018	24
bin	0.00019	151
bin	0.0002	29
bin	0.00021	47
bin	0.00022	31
bin	0.00023	38
bin	0.00024	27
bin	0.00025	34
bin	0.00026	21
bin	0.00027	28
bin	0.00028	14
bin	0.00029	49681
bin	0.0003	1493
bin	0.00031	0
bin	0.00032	0
bin	0.00033	6
bin	0.00034	0
bin	0.00035	0
bin	0.00036	0
bin	0.00037	0
bin	0.00038	277769
bin	0.00039	0
bin	0.0004	0
bin	0.00041	0
bin	0.00042	0
bin	0.00043	0
bin	0.00044	0
bin	0.00045	0
bin	0.00046	0
bin	0.00047	0
bin	0.00048	0
statistic FinalTask.AP.wlan[0].mac.dcf frameSequenceNumPackets:histogram
field count 1543484
field mean 2.3469002594131
field stddev 0.78264578005013
field min 1
field max 4
field sum 3622403
field sqrsum 9446855
attr source frameSequenceNumPackets(frameSequenceFinished)
attr title "frame sequences: number of packets, histogram"
bin	-inf	0
bin	0	0
bin	1	20103
bin	2	1245612
bin	3	0
bin	4	277769
bin	5	0
scalar FinalTask.AP.wlan[0].mac.dcf packetReceivedFromPeer:count 4541040
attr interpolationmode none
attr title "packets received, count"
scalar FinalTask.AP.wlan[0].mac.dcf packetReceivedFromPeer:sum(packetBytes) 2006899030
attr interpolationmode none
attr title "packets received, sum(packetBytes)"
scalar FinalTask.AP.wlan[0].mac.dcf packetReceivedFromPeerUnicast:count 4541034
attr interpolationmode none
attr source ieee80211Unicast(packetReceivedFromPeer)
attr title "packets received: unicast, count"
scalar FinalTask.AP.wlan[0].mac.dcf packetReceivedFromPeerUnicast:sum(packetBytes) 2006898838
attr interpolationmode none
attr source ieee80211Unicast(packetReceivedFromPeer)
attr title "packets received: unicast, sum(packetBytes)"
scalar FinalTask.AP.wlan[0].mac.dcf packetReceivedFromPeerMulticast:count 6
attr interpolationmode none
attr source ieee80211Multicast(packetReceivedFromPeer)
attr title "packets received: multicast, count"
scalar FinalTask.AP.wlan[0].mac.dcf packetReceivedFromPeerMulticast:sum(packetBytes) 192
attr interpolationmode none
attr source ieee80211Multicast(packetReceivedFromPeer)
attr title "packets received: multicast, sum(packetBytes)"
scalar FinalTask.AP.wlan[0].mac.dcf packetReceivedFromPeerBroadcast:count 6
attr interpolationmode none
attr source ieee80211Broadcast(packetReceivedFromPeer)
attr title "packets received: broadcast, count"
scalar FinalTask.AP.wlan[0].mac.dcf packetReceivedFromPeerBroadcast:sum(packetBytes) 192
attr interpolationmode none
attr source ieee80211Broadcast(packetReceivedFromPeer)
attr title "packets received: broadcast, sum(packetBytes)"
scalar FinalTask.AP.wlan[0].mac.dcf packetReceivedFromPeerWithRetry:count 7961
attr interpolationmode none
attr source ieee80211Retry(packetReceivedFromPeer)
attr title "packets received: with retry, count"
scalar FinalTask.AP.wlan[0].mac.dcf packetReceivedFromPeerWithRetry:sum(packetBytes) 7771691
attr interpolationmode none
attr source ieee80211Retry(packetReceivedFromPeer)
attr title "packets received: with retry, sum(packetBytes)"
scalar FinalTask.AP.wlan[0].mac.dcf packetReceivedFromPeerWithoutRetry:count 4533079
attr interpolationmode none
attr source ieee80211NotRetry(packetReceivedFromPeer)
attr title "packets received: without retry, count"
scalar FinalTask.AP.wlan[0].mac.dcf packetReceivedFromPeerWithoutRetry:sum(packetBytes) 1999127339
attr interpolationmode none
attr source ieee80211NotRetry(packetReceivedFromPeer)
attr title "packets received: without retry, sum(packetBytes)"
scalar FinalTask.AP.wlan[0].mac.dcf packetSentToPeer:count 4564650
attr interpolationmode none
attr title "packets sent, count"
scalar FinalTask.AP.wlan[0].mac.dcf packetSentToPeer:sum(packetBytes) 647823455
attr interpolationmode none
attr title "packets sent, sum(packetBytes)"
scalar FinalTask.AP.wlan[0].mac.dcf packetSentToPeerUnicast:count 4544547
attr interpolationmode none
attr source ieee80211Unicast(packetSentToPeer)
attr title "packets sent: unicast, count"
scalar FinalTask.AP.wlan[0].mac.dcf packetSentToPeerUnicast:sum(packetBytes) 646855117
attr interpolationmode none
attr source ieee80211Unicast(packetSentToPeer)
attr title "packets sent: unicast, sum(packetBytes)"
scalar FinalTask.AP.wlan[0].mac.dcf packetSentToPeerMulticast:count 20103
attr interpolationmode none
attr source ieee80211Multicast(packetSentToPeer)
attr title "packets sent: multicast, count"
scalar FinalTask.AP.wlan[0].mac.dcf packetSentToPeerMulticast:sum(packetBytes) 968338
attr interpolationmode none
attr source ieee80211Multicast(packetSentToPeer)
attr title "packets sent: multicast, sum(packetBytes)"
scalar FinalTask.AP.wlan[0].mac.dcf packetSentToPeerBroadcast:count 20103
attr interpolationmode none
attr source ieee80211Broadcast(packetSentToPeer)
attr title "packets sent: broadcast , count"
scalar FinalTask.AP.wlan[0].mac.dcf packetSentToPeerBroadcast:sum(packetBytes) 968338
attr interpolationmode none
attr source ieee80211Broadcast(packetSentToPeer)
attr title "packets sent: broadcast , sum(packetBytes)"
scalar FinalTask.AP.wlan[0].mac.dcf packetSentToPeerWithRetry:count 3513
attr interpolationmode none
attr source ieee80211Retry(packetSentToPeer)
attr title "packets sent: with retry, count"
scalar FinalTask.AP.wlan[0].mac.dcf packetSentToPeerWithRetry:sum(packetBytes) 2413598
attr interpolationmode none
attr source ieee80211Retry(packetSentToPeer)
attr title "packets sent: with retry, sum(packetBytes)"
scalar FinalTask.AP.wlan[0].mac.dcf packetSentToPeerWithoutRetry:count 4561137
attr interpolationmode none
attr source ieee80211NotRetry(packetSentToPeer)
attr title "packets sent: without retry, count"
scalar FinalTask.AP.wlan[0].mac.dcf packetSentToPeerWithoutRetry:sum(packetBytes) 645409857
attr interpolationmode none
attr source ieee80211NotRetry(packetSentToPeer)
attr title "packets sent: without retry, sum(packetBytes)"
scalar FinalTask.AP.wlan[0].mac.dcf packetDrop:count 58408
attr interpolationmode none
attr source packetDropped
attr title "packet drops, count"
scalar FinalTask.AP.wlan[0].mac.dcf packetDrop:sum(packetBytes) 65511396
attr interpolationmode none
attr source packetDropped
attr title "packet drops, sum(packetBytes)"
scalar FinalTask.AP.wlan[0].mac.dcf packetDropNotAddressedToUs:count 0
attr interpolationmode none
attr source packetDropReasonIsNotAddressedToUs(packetDropped)
attr title "packet drops: not addressed to us, count"
scalar FinalTask.AP.wlan[0].mac.dcf packetDropNotAddressedToUs:sum(packetBytes) 0
attr interpolationmode none
attr source packetDropReasonIsNotAddressedToUs(packetDropped)
attr title "packet drops: not addressed to us, sum(packetBytes)"
scalar FinalTask.AP.wlan[0].mac.dcf packetDropQueueOverflow:count 58408
attr interpolationmode none
attr source packetDropReasonIsQueueOverflow(packetDropped)
attr title "packet drops: queue overflow, count"
scalar FinalTask.AP.wlan[0].mac.dcf packetDropQueueOverflow:sum(packetBytes) 65511396
attr interpolationmode none
attr source packetDropReasonIsQueueOverflow(packetDropped)
attr title "packet drops: queue overflow, sum(packetBytes)"
scalar FinalTask.AP.wlan[0].mac.dcf packetDropRetryLimitReached:count 0
attr interpolationmode none
attr source packetDropReasonIsRetryLimitReached(packetDropped)
attr title "packet drops: retry limit reached, count"
scalar FinalTask.AP.wlan[0].mac.dcf packetDropRetryLimitReached:sum(packetBytes) 0
attr interpolationmode none
attr source packetDropReasonIsRetryLimitReached(packetDropped)
attr title "packet drops: retry limit reached, sum(packetBytes)"
scalar FinalTask.AP.wlan[0].mac.dcf linkBroken:count 0
attr interpolationmode none
attr title "link breaks, count"
scalar FinalTask.AP.wlan[0].mac packetReceivedFromLower:count 4543308
attr interpolationmode none
attr title "packets received from lower layer, count"
scalar FinalTask.AP.wlan[0].mac packetReceivedFromLower:sum(packetBytes) 2009126821
attr interpolationmode none
attr title "packets received from lower layer, sum(packetBytes)"
scalar FinalTask.AP.wlan[0].mac packetSentToLower:count 4564650
attr interpolationmode none
attr title "packets sent to lower layer, count"
scalar FinalTask.AP.wlan[0].mac packetSentToLower:sum(packetBytes) 647823455
attr interpolationmode none
attr title "packets sent to lower layer, sum(packetBytes)"
scalar FinalTask.AP.wlan[0].mac packetReceivedFromUpper:count 1578353
attr interpolationmode none
attr title "packets received from upper layer, count"
scalar FinalTask.AP.wlan[0].mac packetReceivedFromUpper:sum(packetBytes) 619581311
attr interpolationmode none
attr title "packets received from upper layer, sum(packetBytes)"
scalar FinalTask.AP.wlan[0].mac packetSentToUpper:count 1537346
attr interpolationmode none
attr title "packets sent to upper layer, count"
scalar FinalTask.AP.wlan[0].mac packetSentToUpper:sum(packetBytes) 1904916684
attr interpolationmode none
attr title "packets sent to upper layer, sum(packetBytes)"
scalar FinalTask.AP.wlan[0].mac packetDrop:count 60670
attr interpolationmode none
attr source packetDropped
attr title "packet drops, count"
scalar FinalTask.AP.wlan[0].mac packetDrop:sum(packetBytes) 67738731
attr interpolationmode none
attr source packetDropped
attr title "packet drops, sum(packetBytes)"
scalar FinalTask.AP.wlan[0].mac packetDropIncorrectlyReceived:count 2262
attr interpolationmode none
attr source packetDropReasonIsIncorrectlyReceived(packetDropped)
attr title "packet drops: incorrectly received, count"
scalar FinalTask.AP.wlan[0].mac packetDropIncorrectlyReceived:sum(packetBytes) 2227335
attr interpolationmode none
attr source packetDropReasonIsIncorrectlyReceived(packetDropped)
attr title "packet drops: incorrectly received, sum(packetBytes)"
scalar FinalTask.AP.wlan[0].mac packetDropNotAddressedToUs:count 0
attr interpolationmode none
attr source packetDropReasonIsNotAddressedToUs(packetDropped)
attr title "packet drops: not addressed to us, count"
scalar FinalTask.AP.wlan[0].mac packetDropNotAddressedToUs:sum(packetBytes) 0
attr interpolationmode none
attr source packetDropReasonIsNotAddressedToUs(packetDropped)
attr title "packet drops: not addressed to us, sum(packetBytes)"
scalar FinalTask.AP.wlan[0].mac packetDropQueueOverflow:count 58408
attr interpolationmode none
attr source packetDropReasonIsQueueOverflow(packetDropped)
attr title "packet drops: queue overflow, count"
scalar FinalTask.AP.wlan[0].mac packetDropQueueOverflow:sum(packetBytes) 65511396
attr interpolationmode none
attr source packetDropReasonIsQueueOverflow(packetDropped)
attr title "packet drops: queue overflow, sum(packetBytes)"
scalar FinalTask.AP.wlan[0].mac packetDropRetryLimitReached:count 0
attr interpolationmode none
attr source packetDropReasonIsRetryLimitReached(packetDropped)
attr title "packet drops: retry limit reached, count"
scalar FinalTask.AP.wlan[0].mac packetDropRetryLimitReached:sum(packetBytes) 0
attr interpolationmode none
attr source packetDropReasonIsRetryLimitReached(packetDropped)
attr title "packet drops: retry limit reached, sum(packetBytes)"
scalar FinalTask.AP.wlan[0].mac packetDropDuplicateDetected:count 0
attr interpolationmode none
attr source packetDropReasonIsDuplicateDetected(packetDropped)
attr title "packet drops: duplicate detected, count"
scalar FinalTask.AP.wlan[0].mac packetDropDuplicateDetected:sum(packetBytes) 0
attr interpolationmode none
attr source packetDropReasonIsDuplicateDetected(packetDropped)
attr title "packet drops: duplicate detected, sum(packetBytes)"
scalar FinalTask.AP.wlan[0].mac packetDropOther:count 0
attr interpolationmode none
attr source packetDropReasonIsOther(packetDropped)
attr title "packet drops: other, count"
scalar FinalTask.AP.wlan[0].mac packetDropOther:sum(packetBytes) 0
attr interpolationmode none
attr source packetDropReasonIsOther(packetDropped)
attr title "packet drops: other, sum(packetBytes)"
scalar FinalTask.AP.wlan[0].mac linkBroken:count 0
attr interpolationmode none
attr title "link breaks, count"
statistic FinalTask.AP.wlan[0].radio radioChannel:histogram
field count 1
field mean 0
field stddev -nan
field min 0
field max 0
field sum 0
field sqrsum 0
attr interpolationmode sample-hold
attr source radioChannelChanged
attr title "Radio channel, histogram"
bin	-inf	0
bin	-0.5	0
bin	-0.48	0
bin	-0.46	0
bin	-0.44	0
bin	-0.42	0
bin	-0.4	0
bin	-0.38	0
bin	-0.36	0
bin	-0.34	0
bin	-0.32	0
bin	-0.3	0
bin	-0.28	0
bin	-0.26	0
bin	-0.24	0
bin	-0.22	0
bin	-0.2	0
bin	-0.18	0
bin	-0.16	0
bin	-0.14	0
bin	-0.12	0
bin	-0.1	0
bin	-0.08	0
bin	-0.06	0
bin	-0.04	0
bin	-0.02	0
bin	0	1
bin	0.02	0
bin	0.04	0
bin	0.06	0
bin	0.08	0
bin	0.1	0
bin	0.12	0
bin	0.14	0
bin	0.16	0
bin	0.18	0
bin	0.2	0
bin	0.22	0
bin	0.24	0
bin	0.26	0
bin	0.28	0
bin	0.3	0
bin	0.32	0
bin	0.34	0
bin	0.36	0
bin	0.38	0
bin	0.4	0
bin	0.42	0
bin	0.44	0
bin	0.46	0
bin	0.48	0
bin	0.5	0
scalar FinalTask.AP.wlan[0].radio radioMode:count 9129303
attr interpolationmode sample-hold
attr source radioModeChanged
attr title "Radio mode, count"
scalar FinalTask.AP.wlan[0].radio receptionState:count 18219546
attr interpolationmode sample-hold
attr source receptionStateChanged
attr title "Radio reception state, count"
scalar FinalTask.AP.wlan[0].radio transmissionState:count 18258600
attr interpolationmode sample-hold
attr source transmissionStateChanged
attr title "Radio transmission state, count"
statistic FinalTask.AP.wlan[0].radio minSnir:histogram
field count 4543308
field mean 41626.871372494
field stddev 18197.866045701
field min 0.46661399832325
field max 111041.41534571
field sum 189123697721.62
field sqrsum 9.3771999642914e+15
attr source minimumSnir(packetSentToUpper)
attr title "Min SNIR, histogram"
bin	-inf	0
bin	0	2262
bin	2000	0
bin	4000	0
bin	6000	0
bin	8000	0
bin	10000	0
bin	12000	0
bin	14000	0
bin	16000	0
bin	18000	0
bin	20000	0
bin	22000	0
bin	24000	208041
bin	26000	0
bin	28000	0
bin	30000	211110
bin	32000	0
bin	34000	0
bin	36000	3601518
bin	38000	0
bin	40000	0
bin	42000	0
bin	44000	0
bin	46000	0
bin	48000	0
bin	50000	0
bin	52000	0
bin	54000	0
bin	56000	0
bin	58000	99684
bin	60000	0
bin	62000	0
bin	64000	0
bin	66000	0
bin	68000	0
bin	70000	0
bin	72000	0
bin	74000	0
bin	76000	0
bin	78000	211295
bin	80000	0
bin	82000	0
bin	84000	0
bin	86000	0
bin	88000	0
bin	90000	0
bin	92000	0
bin	94000	0
bin	96000	0
bin	98000	0
bin	100000	0
bin	102000	0
bin	104000	0
bin	106000	0
bin	108000	0
bin	110000	209398
bin	112000	0
bin	114000	0
bin	116000	0
bin	118000	0
bin	120000	0
bin	122000	0
bin	124000	0
bin	126000	0
bin	128000	0
bin	130000	0
bin	132000	0
bin	134000	0
statistic FinalTask.AP.wlan[0].radio packetErrorRate:histogram
field count 4543308
field mean 0.00049787511654504
field stddev 0.022307562539262
field min 0
field max 1
field sum 2262
field sqrsum 2262
attr source packetErrorRate(packetSentToUpper)
attr title "Packet error rate, histogram"
bin	-inf	0
bin	-0.5	0
bin	-0.48	0
bin	-0.46	0
bin	-0.44	0
bin	-0.42	0
bin	-0.4	0
bin	-0.38	0
bin	-0.36	0
bin	-0.34	0
bin	-0.32	0
bin	-0.3	0
bin	-0.28	0
bin	-0.26	0
bin	-0.24	0
bin	-0.22	0
bin	-0.2	0
bin	-0.18	0
bin	-0.16	0
bin	-0.14	0
bin	-0.12	0
bin	-0.1	0
bin	-0.08	0
bin	-0.06	0
bin	-0.04	0
bin	-0.02	0
bin	0	4541046
bin	0.02	0
bin	0.04	0
bin	0.06	0
bin	0.08	0
bin	0.1	0
bin	0.12	0
bin	0.14	0
bin	0.16	0
bin	0.18	0
bin	0.2	0
bin	0.22	0
bin	0.24	0
bin	0.26	0
bin	0.28	0
bin	0.3	0
bin	0.32	0
bin	0.34	0
bin	0.36	0
bin	0.38	0
bin	0.4	0
bin	0.42	0
bin	0.44	0
bin	0.46	0
bin	0.48	0
bin	0.5	0
bin	0.52	0
bin	0.54	0
bin	0.56	0
bin	0.58	0
bin	0.6	0
bin	0.62	0
bin	0.64	0
bin	0.66	0
bin	0.68	0
bin	0.7	0
bin	0.72	0
bin	0.74	0
bin	0.76	0
bin	0.78	0
bin	0.8	0
bin	0.82	0
bin	0.84	0
bin	0.86	0
bin	0.88	0
bin	0.9	0
bin	0.92	0
bin	0.94	0
bin	0.96	0
bin	0.98	0
bin	1	2262
bin	1.02	0
statistic FinalTask.AP.wlan[0].radio bitErrorRate:histogram
field count 0
field mean -nan
field stddev -nan
field min -nan
field max -nan
field sum 0
field sqrsum 0
attr source bitErrorRate(packetSentToUpper)
attr title "Bit error rate, histogram"
bin	-inf	0
bin	0	0
bin	1	0
statistic FinalTask.AP.wlan[0].radio symbolErrorRate:histogram
field count 0
field mean -nan
field stddev -nan
field min -nan
field max -nan
field sum 0
field sqrsum 0
attr source symbolErrorRate(packetSentToUpper)
attr title "Symbol error rate, histogram"
bin	-inf	0
bin	0	0
bin	1	0
scalar FinalTask.AP.eth[0].mac.queue packetPopped:count 1537346
attr interpolationmode none
attr title "packet popped, count"
scalar FinalTask.AP.eth[0].mac.queue packetPopped:sum(packetBytes) 1921970527
attr interpolationmode none
attr title "packet popped, sum(packetBytes)"
statistic FinalTask.AP.eth[0].mac.queue queueingTime:histogram
field count 1537346
field mean 0
field stddev 0
field min 0
field max 0
field sum 0
field sqrsum 0
attr interpolationmode none
attr source queueingTime(packetPopped)
attr title "queueing times, histogram"
attr unit s
bin	-inf	0
bin	-0.5	0
bin	-0.48	0
bin	-0.46	0
bin	-0.44	0
bin	-0.42	0
bin	-0.4	0
bin	-0.38	0
bin	-0.36	0
bin	-0.34	0
bin	-0.32	0
bin	-0.3	0
bin	-0.28	0
bin	-0.26	0
bin	-0.24	0
bin	-0.22	0
bin	-0.2	0
bin	-0.18	0
bin	-0.16	0
bin	-0.14	0
bin	-0.12	0
bin	-0.1	0
bin	-0.08	0
bin	-0.06	0
bin	-0.04	0
bin	-0.02	0
bin	0	1537346
bin	0.02	0
bin	0.04	0
bin	0.06	0
bin	0.08	0
bin	0.1	0
bin	0.12	0
bin	0.14	0
bin	0.16	0
bin	0.18	0
bin	0.2	0
bin	0.22	0
bin	0.24	0
bin	0.26	0
bin	0.28	0
bin	0.3	0
bin	0.32	0
bin	0.34	0
bin	0.36	0
bin	0.38	0
bin	0.4	0
bin	0.42	0
bin	0.44	0
bin	0.46	0
bin	0.48	0
bin	0.5	0
scalar FinalTask.AP.eth[0].mac.queue queueLength:max 1
attr interpolationmode sample-hold
attr source "count(packetPushed) - count(packetPopped) - count(packetRemoved) - count(packetDropped)"
attr title "queue length, max"
scalar FinalTask.AP.eth[0].mac.queue queueLength:timeavg 0
attr interpolationmode sample-hold
attr source "count(packetPushed) - count(packetPopped) - count(packetRemoved) - count(packetDropped)"
attr title "queue length, timeavg"
scalar FinalTask.AP.eth[0].mac.queue packetPushed:count 1537346
attr interpolationmode none
attr title "packet pushed, count"
scalar FinalTask.AP.eth[0].mac.queue packetPushed:sum(packetBytes) 1921970527
attr interpolationmode none
attr title "packet pushed, sum(packetBytes)"
scalar FinalTask.AP.eth[0].mac.queue packetDropQueueOverflow:count 0
attr interpolationmode none
attr source packetDropReasonIsQueueOverflow(packetDropped)
attr title "packet drops: queue overflow, count"
scalar FinalTask.AP.eth[0].mac.queue packetDropQueueOverflow:sum(packetBytes) 0
attr interpolationmode none
attr source packetDropReasonIsQueueOverflow(packetDropped)
attr title "packet drops: queue overflow, sum(packetBytes)"
scalar FinalTask.AP.eth[0].mac.queue packetRemoved:count 0
attr interpolationmode none
attr title "packets removed, count"
scalar FinalTask.AP.eth[0].mac.queue packetRemoved:sum(packetBytes) 0
attr interpolationmode none
attr title "packets removed, sum(packetBytes)"
scalar FinalTask.AP.eth[0].mac "simulated time" 2000
scalar FinalTask.AP.eth[0].mac full-duplex 1
scalar FinalTask.AP.eth[0].mac "frames/sec sent" 768.673
scalar FinalTask.AP.eth[0].mac "frames/sec rcvd" 789.1765
scalar FinalTask.AP.eth[0].mac "bits/sec sent" 7687882.108
scalar FinalTask.AP.eth[0].mac "bits/sec rcvd" 2541459.364
scalar FinalTask.AP.eth[0].mac "rx channel idle (%)" 100
scalar FinalTask.AP.eth[0].mac "rx channel utilization (%)" 0
scalar FinalTask.AP.eth[0].mac rxPausePkUnits:count 0
attr interpolationmode none
attr title "pause units received, count"
scalar FinalTask.AP.eth[0].mac rxPausePkUnits:sum 0
attr interpolationmode none
attr title "pause units received, sum"
scalar FinalTask.AP.eth[0].mac txPausePkUnits:count 0
attr interpolationmode none
attr title "pause units sent, count"
scalar FinalTask.AP.eth[0].mac txPausePkUnits:sum 0
attr interpolationmode none
attr title "pause units sent, sum"
scalar FinalTask.AP.eth[0].mac rxPkOk:count 1578353
attr interpolationmode none
attr source rxPkOk
attr title "packets received OK, count"
scalar FinalTask.AP.eth[0].mac rxPkOk:sum(packetBytes) 635364841
attr interpolationmode none
attr source rxPkOk
attr title "packets received OK, sum(packetBytes)"
scalar FinalTask.AP.eth[0].mac txPk:count 1537346
attr interpolationmode none
attr source packetSentToLower
attr title "packets transmitted, count"
scalar FinalTask.AP.eth[0].mac txPk:sum(packetBytes) 1921970527
attr interpolationmode none
attr source packetSentToLower
attr title "packets transmitted, sum(packetBytes)"
scalar FinalTask.AP.eth[0].mac packetReceivedFromUpper:count 1537346
attr interpolationmode none
attr source packetReceivedFromUpper
attr title "packet bytes from higher layer, count"
scalar FinalTask.AP.eth[0].mac packetReceivedFromUpper:sum(packetBytes) 1920290144
attr interpolationmode none
attr source packetReceivedFromUpper
attr title "packet bytes from higher layer, sum(packetBytes)"
scalar FinalTask.AP.eth[0].mac passedUpPk:count 1578353
attr interpolationmode none
attr source packetSentToUpper
attr title "packets passed to higher layer, count"
scalar FinalTask.AP.eth[0].mac passedUpPk:sum(packetBytes) 635364841
attr interpolationmode none
attr source packetSentToUpper
attr title "packets passed to higher layer, sum(packetBytes)"
scalar FinalTask.AP.eth[0].mac packetDropIncorrectlyReceived:count 0
attr interpolationmode none
attr source packetDropReasonIsIncorrectlyReceived(packetDropped)
attr title "packet drop: incorrectly received, count"
scalar FinalTask.AP.eth[0].mac packetDropIncorrectlyReceived:sum(packetBytes) 0
attr interpolationmode none
attr source packetDropReasonIsIncorrectlyReceived(packetDropped)
attr title "packet drop: incorrectly received, sum(packetBytes)"
scalar FinalTask.AP.eth[0].mac packetDropInterfaceDown:count 0
attr interpolationmode none
attr source packetDropReasonIsInterfaceDown(packetDropped)
attr title "packet drop: interface down, count"
scalar FinalTask.AP.eth[0].mac packetDropInterfaceDown:sum(packetBytes) 0
attr interpolationmode none
attr source packetDropReasonIsInterfaceDown(packetDropped)
attr title "packet drop: interface down, sum(packetBytes)"
scalar FinalTask.AP.eth[0].mac packetDropNotAddressedToUs:count 0
attr interpolationmode none
attr source packetDropReasonIsNotAddressedToUs(packetDropped)
attr title "packet drop: not addressed to us, count"
scalar FinalTask.AP.eth[0].mac packetDropNotAddressedToUs:sum(packetBytes) 0
attr interpolationmode none
attr source packetDropReasonIsNotAddressedToUs(packetDropped)
attr title "packet drop: not addressed to us, sum(packetBytes)"
scalar FinalTask.DRouter.lo[0].lo rcvdPkFromHl:count 0
attr interpolationmode none
attr source packetReceivedFromUpper
attr title "packets received from higher layer, count"
scalar FinalTask.DRouter.lo[0].lo rcvdPkFromHl:sum(packetBytes) 0
attr interpolationmode none
attr source packetReceivedFromUpper
attr title "packets received from higher layer, sum(packetBytes)"
scalar FinalTask.DRouter.lo[0].lo passedUpPk:count 0
attr interpolationmode none
attr source packetSentToUpper
attr title "packets passed to higher layer, count"
scalar FinalTask.DRouter.lo[0].lo passedUpPk:sum(packetBytes) 0
attr interpolationmode none
attr source packetSentToUpper
attr title "packets passed to higher layer, sum(packetBytes)"
scalar FinalTask.DRouter.ppp[0].ppp.queue packetPopped:count 1537244
attr interpolationmode none
attr title "packet popped, count"
scalar FinalTask.DRouter.ppp[0].ppp.queue packetPopped:sum(packetBytes) 1892615060
attr interpolationmode none
attr title "packet popped, sum(packetBytes)"
statistic FinalTask.DRouter.ppp[0].ppp.queue queueingTime:histogram
field count 1537244
field mean 4.2835589923941e-06
field stddev 2.9404424219973e-05
field min 0
field max 0.000285439964
field sum 6.584875359704
field sqrsum 0.00135733799638
attr interpolationmode none
attr source queueingTime(packetPopped)
attr title "queueing times, histogram"
attr unit s
bin	-inf	0
bin	-0.5	0
bin	-0.48	0
bin	-0.46	0
bin	-0.44	0
bin	-0.42	0
bin	-0.4	0
bin	-0.38	0
bin	-0.36	0
bin	-0.34	0
bin	-0.32	0
bin	-0.3	0
bin	-0.28	0
bin	-0.26	0
bin	-0.24	0
bin	-0.22	0
bin	-0.2	0
bin	-0.18	0
bin	-0.16	0
bin	-0.14	0
bin	-0.12	0
bin	-0.1	0
bin	-0.08	0
bin	-0.06	0
bin	-0.04	0
bin	-0.02	0
bin	0	1537244
bin	0.02	0
bin	0.04	0
bin	0.06	0
bin	0.08	0
bin	0.1	0
bin	0.12	0
bin	0.14	0
bin	0.16	0
bin	0.18	0
bin	0.2	0
bin	0.22	0
bin	0.24	0
bin	0.26	0
bin	0.28	0
bin	0.3	0
bin	0.32	0
bin	0.34	0
bin	0.36	0
bin	0.38	0
bin	0.4	0
bin	0.42	0
bin	0.44	0
bin	0.46	0
bin	0.48	0
bin	0.5	0
scalar FinalTask.DRouter.ppp[0].ppp.queue queueLength:max 3
attr interpolationmode sample-hold
attr source "count(packetPushed) - count(packetPopped) - count(packetRemoved) - count(packetDropped)"
attr title "queue length, max"
scalar FinalTask.DRouter.ppp[0].ppp.queue queueLength:timeavg 0.0032938343543171
attr interpolationmode sample-hold
attr source "count(packetPushed) - count(packetPopped) - count(packetRemoved) - count(packetDropped)"
attr title "queue length, timeavg"
scalar FinalTask.DRouter.ppp[0].ppp.queue packetPushed:count 1537244
attr interpolationmode none
attr title "packet pushed, count"
scalar FinalTask.DRouter.ppp[0].ppp.queue packetPushed:sum(packetBytes) 1892615060
attr interpolationmode none
attr title "packet pushed, sum(packetBytes)"
scalar FinalTask.DRouter.ppp[0].ppp.queue packetDropQueueOverflow:count 0
attr interpolationmode none
attr source packetDropReasonIsQueueOverflow(packetDropped)
attr title "packet drops: queue overflow, count"
scalar FinalTask.DRouter.ppp[0].ppp.queue packetDropQueueOverflow:sum(packetBytes) 0
attr interpolationmode none
attr source packetDropReasonIsQueueOverflow(packetDropped)
attr title "packet drops: queue overflow, sum(packetBytes)"
scalar FinalTask.DRouter.ppp[0].ppp.queue packetRemoved:count 0
attr interpolationmode none
attr title "packets removed, count"
scalar FinalTask.DRouter.ppp[0].ppp.queue packetRemoved:sum(packetBytes) 0
attr interpolationmode none
attr title "packets removed, sum(packetBytes)"
scalar FinalTask.DRouter.ppp[0].ppp transmissionState:timeavg 0.19033757680543
attr interpolationmode sample-hold
attr source transmissionStateChanged
attr title "tx state, timeavg"
scalar FinalTask.DRouter.ppp[0].ppp rxPkOk:count 1578249
attr interpolationmode none
attr source rxPkOk
attr title "packets received OK, count"
scalar FinalTask.DRouter.ppp[0].ppp rxPkOk:sum(packetBytes) 610752327
attr interpolationmode none
attr source rxPkOk
attr title "packets received OK, sum(packetBytes)"
scalar FinalTask.DRouter.ppp[0].ppp txPk:count 1537244
attr interpolationmode none
attr source packetSentToLower
attr title "packets transmitted, count"
scalar FinalTask.DRouter.ppp[0].ppp txPk:sum(packetBytes) 1903375768
attr interpolationmode none
attr source packetSentToLower
attr title "packets transmitted, sum(packetBytes)"
scalar FinalTask.DRouter.ppp[0].ppp rcvdPkFromHl:count 1537244
attr interpolationmode none
attr source packetReceivedFromUpper
attr title "packets received from higher layer, count"
scalar FinalTask.DRouter.ppp[0].ppp rcvdPkFromHl:sum(packetBytes) 1892615060
attr interpolationmode none
attr source packetReceivedFromUpper
attr title "packets received from higher layer, sum(packetBytes)"
scalar FinalTask.DRouter.ppp[0].ppp passedUpPk:count 1578249
attr interpolationmode none
attr source packetSentToUpper
attr title "packets passed to higher layer, count"
scalar FinalTask.DRouter.ppp[0].ppp passedUpPk:sum(packetBytes) 599704584
attr interpolationmode none
attr source packetSentToUpper
attr title "packets passed to higher layer, sum(packetBytes)"
scalar FinalTask.DRouter.ppp[0].ppp packetDropIncorrectlyReceived:count 0
attr interpolationmode none
attr source packetDropReasonIsIncorrectlyReceived(packetDropped)
attr title "packet drop: incorrectly received, count"
scalar FinalTask.DRouter.ppp[0].ppp packetDropIncorrectlyReceived:sum(packetBytes) 0
attr interpolationmode none
attr source packetDropReasonIsIncorrectlyReceived(packetDropped)
attr title "packet drop: incorrectly received, sum(packetBytes)"
scalar FinalTask.DRouter.ppp[0].ppp packetDropInterfaceDown:count 0
attr interpolationmode none
attr source packetDropReasonIsInterfaceDown(packetDropped)
attr title "packet drop: interface down, count"
scalar FinalTask.DRouter.ppp[0].ppp packetDropInterfaceDown:sum(packetBytes) 0
attr interpolationmode none
attr source packetDropReasonIsInterfaceDown(packetDropped)
attr title "packet drop: interface down, sum(packetBytes)"
scalar FinalTask.DRouter.eth[0].mac.queue packetPopped:count 1578353
attr interpolationmode none
attr title "packet popped, count"
scalar FinalTask.DRouter.eth[0].mac.queue packetPopped:sum(packetBytes) 635364841
attr interpolationmode none
attr title "packet popped, sum(packetBytes)"
statistic FinalTask.DRouter.eth[0].mac.queue queueingTime:histogram
field count 1578353
field mean 2.532664368659e-06
field stddev 3.5612648427452e-05
field min 0
field max 0.0073824
field sum 3.9974384042661
field sqrsum 0.0020118860263999
attr interpolationmode none
attr source queueingTime(packetPopped)
attr title "queueing times, histogram"
attr unit s
bin	-inf	0
bin	0	1553758
bin	0.0001	24216
bin	0.0002	159
bin	0.0003	51
bin	0.0004	20
bin	0.0005	11
bin	0.0006	4
bin	0.0007	5
bin	0.0008	4
bin	0.0009	4
bin	0.001	1
bin	0.0011	4
bin	0.0012	3
bin	0.0013	5
bin	0.0014	4
bin	0.0015	5
bin	0.0016	1
bin	0.0017	4
bin	0.0018	5
bin	0.0019	3
bin	0.002	4
bin	0.0021	1
bin	0.0022	4
bin	0.0023	4
bin	0.0024	4
bin	0.0025	3
bin	0.0026	1
bin	0.0027	5
bin	0.0028	5
bin	0.0029	3
bin	0.003	3
bin	0.0031	2
bin	0.0032	1
bin	0.0033	2
bin	0.0034	2
bin	0.0035	2
bin	0.0036	2
bin	0.0037	0
bin	0.0038	3
bin	0.0039	2
bin	0.004	2
bin	0.0041	2
bin	0.0042	0
bin	0.0043	2
bin	0.0044	1
bin	0.0045	1
bin	0.0046	1
bin	0.0047	2
bin	0.0048	0
bin	0.0049	1
bin	0.005	1
bin	0.0051	1
bin	0.0052	1
bin	0.0053	0
bin	0.0054	1
bin	0.0055	1
bin	0.0056	1
bin	0.0057	1
bin	0.0058	0
bin	0.0059	1
bin	0.006	1
bin	0.0061	1
bin	0.0062	2
bin	0.0063	1
bin	0.0064	0
bin	0.0065	1
bin	0.0066	1
bin	0.0067	1
bin	0.0068	1
bin	0.0069	0
bin	0.007	1
bin	0.0071	1
bin	0.0072	1
bin	0.0073	1
bin	0.0074	0
scalar FinalTask.DRouter.eth[0].mac.queue queueLength:max 77
attr interpolationmode sample-hold
attr source "count(packetPushed) - count(packetPopped) - count(packetRemoved) - count(packetDropped)"
attr title "queue length, max"
scalar FinalTask.DRouter.eth[0].mac.queue queueLength:timeavg 0.001998951029989
attr interpolationmode sample-hold
attr source "count(packetPushed) - count(packetPopped) - count(packetRemoved) - count(packetDropped)"
attr title "queue length, timeavg"
scalar FinalTask.DRouter.eth[0].mac.queue packetPushed:count 1578353
attr interpolationmode none
attr title "packet pushed, count"
scalar FinalTask.DRouter.eth[0].mac.queue packetPushed:sum(packetBytes) 635364841
attr interpolationmode none
attr title "packet pushed, sum(packetBytes)"
scalar FinalTask.DRouter.eth[0].mac.queue packetDropQueueOverflow:count 0
attr interpolationmode none
attr source packetDropReasonIsQueueOverflow(packetDropped)
attr title "packet drops: queue overflow, count"
scalar FinalTask.DRouter.eth[0].mac.queue packetDropQueueOverflow:sum(packetBytes) 0
attr interpolationmode none
attr source packetDropReasonIsQueueOverflow(packetDropped)
attr title "packet drops: queue overflow, sum(packetBytes)"
scalar FinalTask.DRouter.eth[0].mac.queue packetRemoved:count 0
attr interpolationmode none
attr title "packets removed, count"
scalar FinalTask.DRouter.eth[0].mac.queue packetRemoved:sum(packetBytes) 0
attr interpolationmode none
attr title "packets removed, sum(packetBytes)"
scalar FinalTask.DRouter.eth[0].mac "simulated time" 2000
scalar FinalTask.DRouter.eth[0].mac full-duplex 1
scalar FinalTask.DRouter.eth[0].mac "frames/sec sent" 789.1765
scalar FinalTask.DRouter.eth[0].mac "frames/sec rcvd" 768.673
scalar FinalTask.DRouter.eth[0].mac "bits/sec sent" 2541459.364
scalar FinalTask.DRouter.eth[0].mac "bits/sec rcvd" 7687882.108
scalar FinalTask.DRouter.eth[0].mac "rx channel idle (%)" 100
scalar FinalTask.DRouter.eth[0].mac "rx channel utilization (%)" 0
scalar FinalTask.DRouter.eth[0].mac rxPausePkUnits:count 0
attr interpolationmode none
attr title "pause units received, count"
scalar FinalTask.DRouter.eth[0].mac rxPausePkUnits:sum 0
attr interpolationmode none
attr title "pause units received, sum"
scalar FinalTask.DRouter.eth[0].mac txPausePkUnits:count 0
attr interpolationmode none
attr title "pause units sent, count"
scalar FinalTask.DRouter.eth[0].mac txPausePkUnits:sum 0
attr interpolationmode none
attr title "pause units sent, sum"
scalar FinalTask.DRouter.eth[0].mac rxPkOk:count 1537346
attr interpolationmode none
attr source rxPkOk
attr title "packets received OK, count"
scalar FinalTask.DRouter.eth[0].mac rxPkOk:sum(packetBytes) 1921970527
attr interpolationmode none
attr source rxPkOk
attr title "packets received OK, sum(packetBytes)"
scalar FinalTask.DRouter.eth[0].mac txPk:count 1578353
attr interpolationmode none
attr source packetSentToLower
attr title "packets transmitted, count"
scalar FinalTask.DRouter.eth[0].mac txPk:sum(packetBytes) 635364841
attr interpolationmode none
attr source packetSentToLower
attr title "packets transmitted, sum(packetBytes)"
scalar FinalTask.DRouter.eth[0].mac packetReceivedFromUpper:count 1578353
attr interpolationmode none
attr source packetReceivedFromUpper
attr title "packet bytes from higher layer, count"
scalar FinalTask.DRouter.eth[0].mac packetReceivedFromUpper:sum(packetBytes) 628117850
attr interpolationmode none
attr source packetReceivedFromUpper
attr title "packet bytes from higher layer, sum(packetBytes)"
scalar FinalTask.DRouter.eth[0].mac passedUpPk:count 1537346
attr interpolationmode none
attr source packetSentToUpper
attr title "packets passed to higher layer, count"
scalar FinalTask.DRouter.eth[0].mac passedUpPk:sum(packetBytes) 1921970527
attr interpolationmode none
attr source packetSentToUpper
attr title "packets passed to higher layer, sum(packetBytes)"
scalar FinalTask.DRouter.eth[0].mac packetDropIncorrectlyReceived:count 0
attr interpolationmode none
attr source packetDropReasonIsIncorrectlyReceived(packetDropped)
attr title "packet drop: incorrectly received, count"
scalar FinalTask.DRouter.eth[0].mac packetDropIncorrectlyReceived:sum(packetBytes) 0
attr interpolationmode none
attr source packetDropReasonIsIncorrectlyReceived(packetDropped)
attr title "packet drop: incorrectly received, sum(packetBytes)"
scalar FinalTask.DRouter.eth[0].mac packetDropInterfaceDown:count 0
attr interpolationmode none
attr source packetDropReasonIsInterfaceDown(packetDropped)
attr title "packet drop: interface down, count"
scalar FinalTask.DRouter.eth[0].mac packetDropInterfaceDown:sum(packetBytes) 0
attr interpolationmode none
attr source packetDropReasonIsInterfaceDown(packetDropped)
attr title "packet drop: interface down, sum(packetBytes)"
scalar FinalTask.DRouter.eth[0].mac packetDropNotAddressedToUs:count 0
attr interpolationmode none
attr source packetDropReasonIsNotAddressedToUs(packetDropped)
attr title "packet drop: not addressed to us, count"
scalar FinalTask.DRouter.eth[0].mac packetDropNotAddressedToUs:sum(packetBytes) 0
attr interpolationmode none
attr source packetDropReasonIsNotAddressedToUs(packetDropped)
attr title "packet drop: not addressed to us, sum(packetBytes)"
scalar FinalTask.DRouter.eth[0].encap pauseSent:count 0
attr title "pause sent, count"
scalar FinalTask.DRouter.eth[0].encap pauseSent:sum 0
attr title "pause sent, sum"
scalar FinalTask.DRouter.eth[0].encap decapPk:count 1537346
attr interpolationmode none
attr source decapPk
attr title "packets decapsulated, count"
scalar FinalTask.DRouter.eth[0].encap decapPk:sum(packetBytes) 1894298299
attr interpolationmode none
attr source decapPk
attr title "packets decapsulated, sum(packetBytes)"
scalar FinalTask.DRouter.eth[0].encap encapPk:count 1578353
attr interpolationmode none
attr source encapPk
attr title "packets encapsulated, count"
scalar FinalTask.DRouter.eth[0].encap encapPk:sum(packetBytes) 599707496
attr interpolationmode none
attr source encapPk
attr title "packets encapsulated, sum(packetBytes)"
scalar FinalTask.DRouter.ipv4.ip packetDropAddressResolutionFailed:count 0
attr interpolationmode none
attr source packetDropReasonIsAddressResolutionFailed(packetDropped)
attr title "packet drop: address resolution failed, count"
scalar FinalTask.DRouter.ipv4.ip packetDropAddressResolutionFailed:sum(packetBytes) 0
attr interpolationmode none
attr source packetDropReasonIsAddressResolutionFailed(packetDropped)
attr title "packet drop: address resolution failed, sum(packetBytes)"
scalar FinalTask.DRouter.ipv4.ip packetDropHopLimitReached:count 0
attr interpolationmode none
attr source packetDropReasonIsHopLimitReached(packetDropped)
attr title "packet drop: hop limit reached, count"
scalar FinalTask.DRouter.ipv4.ip packetDropHopLimitReached:sum(packetBytes) 0
attr interpolationmode none
attr source packetDropReasonIsHopLimitReached(packetDropped)
attr title "packet drop: hop limit reached, sum(packetBytes)"
scalar FinalTask.DRouter.ipv4.ip packetDropForwardingDisabled:count 0
attr interpolationmode none
attr source packetDropReasonIsForwardingDisabled(packetDropped)
attr title "packet drop: forwarding disabled, count"
scalar FinalTask.DRouter.ipv4.ip packetDropForwardingDisabled:sum(packetBytes) 0
attr interpolationmode none
attr source packetDropReasonIsForwardingDisabled(packetDropped)
attr title "packet drop: forwarding disabled, sum(packetBytes)"
scalar FinalTask.DRouter.ipv4.ip packetDropNoInterfaceFound:count 0
attr interpolationmode none
attr source packetDropReasonIsNoInterfaceFound(packetDropped)
attr title "packet drop: no interface found, count"
scalar FinalTask.DRouter.ipv4.ip packetDropNoInterfaceFound:sum(packetBytes) 0
attr interpolationmode none
attr source packetDropReasonIsNoInterfaceFound(packetDropped)
attr title "packet drop: no interface found, sum(packetBytes)"
scalar FinalTask.DRouter.ipv4.ip packetDropNoRouteFound:count 0
attr interpolationmode none
attr source packetDropReasonIsNoRouteFound(packetDropped)
attr title "packet drop: no route found, count"
scalar FinalTask.DRouter.ipv4.ip packetDropNoRouteFound:sum(packetBytes) 0
attr interpolationmode none
attr source packetDropReasonIsNoRouteFound(packetDropped)
attr title "packet drop: no route found, sum(packetBytes)"
scalar FinalTask.DRouter.ipv4.ip packetDropUndefined:count 0
attr interpolationmode none
attr source packetDropReasonIsUndefined(packetDropped)
attr title "packet drop: undefined, count"
scalar FinalTask.DRouter.ipv4.ip packetDropUndefined:sum(packetBytes) 0
attr interpolationmode none
attr source packetDropReasonIsUndefined(packetDropped)
attr title "packet drop: undefined, sum(packetBytes)"
scalar FinalTask.DRouter.ipv4.arp arpResolutionFailed:count 0
attr title "ARP failed resolutions, count"
scalar FinalTask.DRouter.ipv4.arp arpResolutionCompleted:count 102
attr title "ARP completed resolutions, count"
scalar FinalTask.DRouter.ipv4.arp arpResolutionInitiated:count 97
attr title "ARP initiated resolutions, count"
scalar FinalTask.DRouter.ipv4.arp arpReplySent:count 6
attr source arpReplySent
attr title "ARP replies sent, count"
scalar FinalTask.DRouter.ipv4.arp arpReplySent:sum(packetBytes) 168
attr source arpReplySent
attr title "ARP replies sent, sum(packetBytes)"
scalar FinalTask.DRouter.ipv4.arp arpRequestSent:count 98
attr source arpRequestSent
attr title "ARP request sent, count"
scalar FinalTask.DRouter.ipv4.arp arpRequestSent:sum(packetBytes) 2744
attr source arpRequestSent
attr title "ARP request sent, sum(packetBytes)"
scalar FinalTask.DISPRouter.lo[0].lo rcvdPkFromHl:count 0
attr interpolationmode none
attr source packetReceivedFromUpper
attr title "packets received from higher layer, count"
scalar FinalTask.DISPRouter.lo[0].lo rcvdPkFromHl:sum(packetBytes) 0
attr interpolationmode none
attr source packetReceivedFromUpper
attr title "packets received from higher layer, sum(packetBytes)"
scalar FinalTask.DISPRouter.lo[0].lo passedUpPk:count 0
attr interpolationmode none
attr source packetSentToUpper
attr title "packets passed to higher layer, count"
scalar FinalTask.DISPRouter.lo[0].lo passedUpPk:sum(packetBytes) 0
attr interpolationmode none
attr source packetSentToUpper
attr title "packets passed to higher layer, sum(packetBytes)"
scalar FinalTask.DISPRouter.ppp[0].ppp.queue packetPopped:count 1578249
attr interpolationmode none
attr title "packet popped, count"
scalar FinalTask.DISPRouter.ppp[0].ppp.queue packetPopped:sum(packetBytes) 599704584
attr interpolationmode none
attr title "packet popped, sum(packetBytes)"
statistic FinalTask.DISPRouter.ppp[0].ppp.queue queueingTime:histogram
field count 1578249
field mean 1.0711827414248e-06
field stddev 9.5949921822222e-06
field min 0
field max 0.000434870712
field sum 1.6905930904709
field sqrsum 0.00014711056069584
attr interpolationmode none
attr source queueingTime(packetPopped)
attr title "queueing times, histogram"
attr unit s
bin	-inf	0
bin	-0.5	0
bin	-0.48	0
bin	-0.46	0
bin	-0.44	0
bin	-0.42	0
bin	-0.4	0
bin	-0.38	0
bin	-0.36	0
bin	-0.34	0
bin	-0.32	0
bin	-0.3	0
bin	-0.28	0
bin	-0.26	0
bin	-0.24	0
bin	-0.22	0
bin	-0.2	0
bin	-0.18	0
bin	-0.16	0
bin	-0.14	0
bin	-0.12	0
bin	-0.1	0
bin	-0.08	0
bin	-0.06	0
bin	-0.04	0
bin	-0.02	0
bin	0	1578249
bin	0.02	0
bin	0.04	0
bin	0.06	0
bin	0.08	0
bin	0.1	0
bin	0.12	0
bin	0.14	0
bin	0.16	0
bin	0.18	0
bin	0.2	0
bin	0.22	0
bin	0.24	0
bin	0.26	0
bin	0.28	0
bin	0.3	0
bin	0.32	0
bin	0.34	0
bin	0.36	0
bin	0.38	0
bin	0.4	0
bin	0.42	0
bin	0.44	0
bin	0.46	0
bin	0.48	0
bin	0.5	0
scalar FinalTask.DISPRouter.ppp[0].ppp.queue queueLength:max 35
attr interpolationmode sample-hold
attr source "count(packetPushed) - count(packetPopped) - count(packetRemoved) - count(packetDropped)"
attr title "queue length, max"
scalar FinalTask.DISPRouter.ppp[0].ppp.queue queueLength:timeavg 0.00084539454072879
attr interpolationmode sample-hold
attr source "count(packetPushed) - count(packetPopped) - count(packetRemoved) - count(packetDropped)"
attr title "queue length, timeavg"
scalar FinalTask.DISPRouter.ppp[0].ppp.queue packetPushed:count 1578249
attr interpolationmode none
attr title "packet pushed, count"
scalar FinalTask.DISPRouter.ppp[0].ppp.queue packetPushed:sum(packetBytes) 599704584
attr interpolationmode none
attr title "packet pushed, sum(packetBytes)"
scalar FinalTask.DISPRouter.ppp[0].ppp.queue packetDropQueueOverflow:count 0
attr interpolationmode none
attr source packetDropReasonIsQueueOverflow(packetDropped)
attr title "packet drops: queue overflow, count"
scalar FinalTask.DISPRouter.ppp[0].ppp.queue packetDropQueueOverflow:sum(packetBytes) 0
attr interpolationmode none
attr source packetDropReasonIsQueueOverflow(packetDropped)
attr title "packet drops: queue overflow, sum(packetBytes)"
scalar FinalTask.DISPRouter.ppp[0].ppp.queue packetRemoved:count 0
attr interpolationmode none
attr title "packets removed, count"
scalar FinalTask.DISPRouter.ppp[0].ppp.queue packetRemoved:sum(packetBytes) 0
attr interpolationmode none
attr title "packets removed, sum(packetBytes)"
scalar FinalTask.DISPRouter.ppp[0].ppp transmissionState:timeavg 0.024430093079274
attr interpolationmode sample-hold
attr source transmissionStateChanged
attr title "tx state, timeavg"
scalar FinalTask.DISPRouter.ppp[0].ppp rxPkOk:count 1537244
attr interpolationmode none
attr source rxPkOk
attr title "packets received OK, count"
scalar FinalTask.DISPRouter.ppp[0].ppp rxPkOk:sum(packetBytes) 1903375768
attr interpolationmode none
attr source rxPkOk
attr title "packets received OK, sum(packetBytes)"
scalar FinalTask.DISPRouter.ppp[0].ppp txPk:count 1578249
attr interpolationmode none
attr source packetSentToLower
attr title "packets transmitted, count"
scalar FinalTask.DISPRouter.ppp[0].ppp txPk:sum(packetBytes) 610752327
attr interpolationmode none
attr source packetSentToLower
attr title "packets transmitted, sum(packetBytes)"
scalar FinalTask.DISPRouter.ppp[0].ppp rcvdPkFromHl:count 1578249
attr interpolationmode none
attr source packetReceivedFromUpper
attr title "packets received from higher layer, count"
scalar FinalTask.DISPRouter.ppp[0].ppp rcvdPkFromHl:sum(packetBytes) 599704584
attr interpolationmode none
attr source packetReceivedFromUpper
attr title "packets received from higher layer, sum(packetBytes)"
scalar FinalTask.DISPRouter.ppp[0].ppp passedUpPk:count 1537244
attr interpolationmode none
attr source packetSentToUpper
attr title "packets passed to higher layer, count"
scalar FinalTask.DISPRouter.ppp[0].ppp passedUpPk:sum(packetBytes) 1892615060
attr interpolationmode none
attr source packetSentToUpper
attr title "packets passed to higher layer, sum(packetBytes)"
scalar FinalTask.DISPRouter.ppp[0].ppp packetDropIncorrectlyReceived:count 0
attr interpolationmode none
attr source packetDropReasonIsIncorrectlyReceived(packetDropped)
attr title "packet drop: incorrectly received, count"
scalar FinalTask.DISPRouter.ppp[0].ppp packetDropIncorrectlyReceived:sum(packetBytes) 0
attr interpolationmode none
attr source packetDropReasonIsIncorrectlyReceived(packetDropped)
attr title "packet drop: incorrectly received, sum(packetBytes)"
scalar FinalTask.DISPRouter.ppp[0].ppp packetDropInterfaceDown:count 0
attr interpolationmode none
attr source packetDropReasonIsInterfaceDown(packetDropped)
attr title "packet drop: interface down, count"
scalar FinalTask.DISPRouter.ppp[0].ppp packetDropInterfaceDown:sum(packetBytes) 0
attr interpolationmode none
attr source packetDropReasonIsInterfaceDown(packetDropped)
attr title "packet drop: interface down, sum(packetBytes)"
scalar FinalTask.DISPRouter.eth[0].mac.queue packetPopped:count 281009
attr interpolationmode none
attr title "packet popped, count"
scalar FinalTask.DISPRouter.eth[0].mac.queue packetPopped:sum(packetBytes) 18137594
attr interpolationmode none
attr title "packet popped, sum(packetBytes)"
statistic FinalTask.DISPRouter.eth[0].mac.queue queueingTime:histogram
field count 281009
field mean 2.1992534046952e-07
field stddev 9.9288434767789e-06
field min 0
field max 0.00079296
field sum 0.061801
field sqrsum 2.77159033744e-05
attr interpolationmode none
attr source queueingTime(packetPopped)
attr title "queueing times, histogram"
attr unit s
bin	-inf	0
bin	-0.5	0
bin	-0.48	0
bin	-0.46	0
bin	-0.44	0
bin	-0.42	0
bin	-0.4	0
bin	-0.38	0
bin	-0.36	0
bin	-0.34	0
bin	-0.32	0
bin	-0.3	0
bin	-0.28	0
bin	-0.26	0
bin	-0.24	0
bin	-0.22	0
bin	-0.2	0
bin	-0.18	0
bin	-0.16	0
bin	-0.14	0
bin	-0.12	0
bin	-0.1	0
bin	-0.08	0
bin	-0.06	0
bin	-0.04	0
bin	-0.02	0
bin	0	281009
bin	0.02	0
bin	0.04	0
bin	0.06	0
bin	0.08	0
bin	0.1	0
bin	0.12	0
bin	0.14	0
bin	0.16	0
bin	0.18	0
bin	0.2	0
bin	0.22	0
bin	0.24	0
bin	0.26	0
bin	0.28	0
bin	0.3	0
bin	0.32	0
bin	0.34	0
bin	0.36	0
bin	0.38	0
bin	0.4	0
bin	0.42	0
bin	0.44	0
bin	0.46	0
bin	0.48	0
bin	0.5	0
scalar FinalTask.DISPRouter.eth[0].mac.queue queueLength:max 118
attr interpolationmode sample-hold
attr source "count(packetPushed) - count(packetPopped) - count(packetRemoved) - count(packetDropped)"
attr title "queue length, max"
scalar FinalTask.DISPRouter.eth[0].mac.queue queueLength:timeavg 3.091360837244e-05
attr interpolationmode sample-hold
attr source "count(packetPushed) - count(packetPopped) - count(packetRemoved) - count(packetDropped)"
attr title "queue length, timeavg"
scalar FinalTask.DISPRouter.eth[0].mac.queue packetPushed:count 281009
attr interpolationmode none
attr title "packet pushed, count"
scalar FinalTask.DISPRouter.eth[0].mac.queue packetPushed:sum(packetBytes) 18137594
attr interpolationmode none
attr title "packet pushed, sum(packetBytes)"
scalar FinalTask.DISPRouter.eth[0].mac.queue packetDropQueueOverflow:count 0
attr interpolationmode none
attr source packetDropReasonIsQueueOverflow(packetDropped)
attr title "packet drops: queue overflow, count"
scalar FinalTask.DISPRouter.eth[0].mac.queue packetDropQueueOverflow:sum(packetBytes) 0
attr interpolationmode none
attr source packetDropReasonIsQueueOverflow(packetDropped)
attr title "packet drops: queue overflow, sum(packetBytes)"
scalar FinalTask.DISPRouter.eth[0].mac.queue packetRemoved:count 0
attr interpolationmode none
attr title "packets removed, count"
scalar FinalTask.DISPRouter.eth[0].mac.queue packetRemoved:sum(packetBytes) 0
attr interpolationmode none
attr title "packets removed, sum(packetBytes)"
scalar FinalTask.DISPRouter.eth[0].mac "simulated time" 2000
scalar FinalTask.DISPRouter.eth[0].mac full-duplex 1
scalar FinalTask.DISPRouter.eth[0].mac "frames/sec sent" 140.5045
scalar FinalTask.DISPRouter.eth[0].mac "frames/sec rcvd" 161.295
scalar FinalTask.DISPRouter.eth[0].mac "bits/sec sent" 72550.376
scalar FinalTask.DISPRouter.eth[0].mac "bits/sec rcvd" 1941195.18
scalar FinalTask.DISPRouter.eth[0].mac "rx channel idle (%)" 100
scalar FinalTask.DISPRouter.eth[0].mac "rx channel utilization (%)" 0
scalar FinalTask.DISPRouter.eth[0].mac rxPausePkUnits:count 0
attr interpolationmode none
attr title "pause units received, count"
scalar FinalTask.DISPRouter.eth[0].mac rxPausePkUnits:sum 0
attr interpolationmode none
attr title "pause units received, sum"
scalar FinalTask.DISPRouter.eth[0].mac txPausePkUnits:count 0
attr interpolationmode none
attr title "pause units sent, count"
scalar FinalTask.DISPRouter.eth[0].mac txPausePkUnits:sum 0
attr interpolationmode none
attr title "pause units sent, sum"
scalar FinalTask.DISPRouter.eth[0].mac rxPkOk:count 322590
attr interpolationmode none
attr source rxPkOk
attr title "packets received OK, count"
scalar FinalTask.DISPRouter.eth[0].mac rxPkOk:sum(packetBytes) 485298795
attr interpolationmode none
attr source rxPkOk
attr title "packets received OK, sum(packetBytes)"
scalar FinalTask.DISPRouter.eth[0].mac txPk:count 281009
attr interpolationmode none
attr source packetSentToLower
attr title "packets transmitted, count"
scalar FinalTask.DISPRouter.eth[0].mac txPk:sum(packetBytes) 18137594
attr interpolationmode none
attr source packetSentToLower
attr title "packets transmitted, sum(packetBytes)"
scalar FinalTask.DISPRouter.eth[0].mac packetReceivedFromUpper:count 281009
attr interpolationmode none
attr source packetReceivedFromUpper
attr title "packet bytes from higher layer, count"
scalar FinalTask.DISPRouter.eth[0].mac packetReceivedFromUpper:sum(packetBytes) 16458698
attr interpolationmode none
attr source packetReceivedFromUpper
attr title "packet bytes from higher layer, sum(packetBytes)"
scalar FinalTask.DISPRouter.eth[0].mac passedUpPk:count 322590
attr interpolationmode none
attr source packetSentToUpper
attr title "packets passed to higher layer, count"
scalar FinalTask.DISPRouter.eth[0].mac passedUpPk:sum(packetBytes) 485298795
attr interpolationmode none
attr source packetSentToUpper
attr title "packets passed to higher layer, sum(packetBytes)"
scalar FinalTask.DISPRouter.eth[0].mac packetDropIncorrectlyReceived:count 0
attr interpolationmode none
attr source packetDropReasonIsIncorrectlyReceived(packetDropped)
attr title "packet drop: incorrectly received, count"
scalar FinalTask.DISPRouter.eth[0].mac packetDropIncorrectlyReceived:sum(packetBytes) 0
attr interpolationmode none
attr source packetDropReasonIsIncorrectlyReceived(packetDropped)
attr title "packet drop: incorrectly received, sum(packetBytes)"
scalar FinalTask.DISPRouter.eth[0].mac packetDropInterfaceDown:count 0
attr interpolationmode none
attr source packetDropReasonIsInterfaceDown(packetDropped)
attr title "packet drop: interface down, count"
scalar FinalTask.DISPRouter.eth[0].mac packetDropInterfaceDown:sum(packetBytes) 0
attr interpolationmode none
attr source packetDropReasonIsInterfaceDown(packetDropped)
attr title "packet drop: interface down, sum(packetBytes)"
scalar FinalTask.DISPRouter.eth[0].mac packetDropNotAddressedToUs:count 0
attr interpolationmode none
attr source packetDropReasonIsNotAddressedToUs(packetDropped)
attr title "packet drop: not addressed to us, count"
scalar FinalTask.DISPRouter.eth[0].mac packetDropNotAddressedToUs:sum(packetBytes) 0
attr interpolationmode none
attr source packetDropReasonIsNotAddressedToUs(packetDropped)
attr title "packet drop: not addressed to us, sum(packetBytes)"
scalar FinalTask.DISPRouter.eth[0].encap pauseSent:count 0
attr title "pause sent, count"
scalar FinalTask.DISPRouter.eth[0].encap pauseSent:sum 0
attr title "pause sent, sum"
scalar FinalTask.DISPRouter.eth[0].encap decapPk:count 322590
attr interpolationmode none
attr source decapPk
attr title "packets decapsulated, count"
scalar FinalTask.DISPRouter.eth[0].encap decapPk:sum(packetBytes) 479492175
attr interpolationmode none
attr source decapPk
attr title "packets decapsulated, sum(packetBytes)"
scalar FinalTask.DISPRouter.eth[0].encap encapPk:count 281009
attr interpolationmode none
attr source encapPk
attr title "packets encapsulated, count"
scalar FinalTask.DISPRouter.eth[0].encap encapPk:sum(packetBytes) 11400536
attr interpolationmode none
attr source encapPk
attr title "packets encapsulated, sum(packetBytes)"
scalar FinalTask.DISPRouter.eth[1].mac.queue packetPopped:count 1256281
attr interpolationmode none
attr title "packet popped, count"
scalar FinalTask.DISPRouter.eth[1].mac.queue packetPopped:sum(packetBytes) 1903829349
attr interpolationmode none
attr title "packet popped, sum(packetBytes)"
statistic FinalTask.DISPRouter.eth[1].mac.queue queueingTime:histogram
field count 1256281
field mean 2.6620760478165e-06
field stddev 0.00013049277548648
field min 0
field max 0.00995184
field sum 3.344315559427
field sqrsum 0.021401296518825
attr interpolationmode none
attr source queueingTime(packetPopped)
attr title "queueing times, histogram"
attr unit s
bin	-inf	0
bin	-0.5	0
bin	-0.48	0
bin	-0.46	0
bin	-0.44	0
bin	-0.42	0
bin	-0.4	0
bin	-0.38	0
bin	-0.36	0
bin	-0.34	0
bin	-0.32	0
bin	-0.3	0
bin	-0.28	0
bin	-0.26	0
bin	-0.24	0
bin	-0.22	0
bin	-0.2	0
bin	-0.18	0
bin	-0.16	0
bin	-0.14	0
bin	-0.12	0
bin	-0.1	0
bin	-0.08	0
bin	-0.06	0
bin	-0.04	0
bin	-0.02	0
bin	0	1256281
bin	0.02	0
bin	0.04	0
bin	0.06	0
bin	0.08	0
bin	0.1	0
bin	0.12	0
bin	0.14	0
bin	0.16	0
bin	0.18	0
bin	0.2	0
bin	0.22	0
bin	0.24	0
bin	0.26	0
bin	0.28	0
bin	0.3	0
bin	0.32	0
bin	0.34	0
bin	0.36	0
bin	0.38	0
bin	0.4	0
bin	0.42	0
bin	0.44	0
bin	0.46	0
bin	0.48	0
bin	0.5	0
scalar FinalTask.DISPRouter.eth[1].mac.queue queueLength:max 81
attr interpolationmode sample-hold
attr source "count(packetPushed) - count(packetPopped) - count(packetRemoved) - count(packetDropped)"
attr title "queue length, max"
scalar FinalTask.DISPRouter.eth[1].mac.queue queueLength:timeavg 0.001672251183897
attr interpolationmode sample-hold
attr source "count(packetPushed) - count(packetPopped) - count(packetRemoved) - count(packetDropped)"
attr title "queue length, timeavg"
scalar FinalTask.DISPRouter.eth[1].mac.queue packetPushed:count 1256281
attr interpolationmode none
attr title "packet pushed, count"
scalar FinalTask.DISPRouter.eth[1].mac.queue packetPushed:sum(packetBytes) 1903829349
attr interpolationmode none
attr title "packet pushed, sum(packetBytes)"
scalar FinalTask.DISPRouter.eth[1].mac.queue packetDropQueueOverflow:count 0
attr interpolationmode none
attr source packetDropReasonIsQueueOverflow(packetDropped)
attr title "packet drops: queue overflow, count"
scalar FinalTask.DISPRouter.eth[1].mac.queue packetDropQueueOverflow:sum(packetBytes) 0
attr interpolationmode none
attr source packetDropReasonIsQueueOverflow(packetDropped)
attr title "packet drops: queue overflow, sum(packetBytes)"
scalar FinalTask.DISPRouter.eth[1].mac.queue packetRemoved:count 0
attr interpolationmode none
attr title "packets removed, count"
scalar FinalTask.DISPRouter.eth[1].mac.queue packetRemoved:sum(packetBytes) 0
attr interpolationmode none
attr title "packets removed, sum(packetBytes)"
scalar FinalTask.DISPRouter.eth[1].mac "simulated time" 2000
scalar FinalTask.DISPRouter.eth[1].mac full-duplex 1
scalar FinalTask.DISPRouter.eth[1].mac "frames/sec sent" 628.1405
scalar FinalTask.DISPRouter.eth[1].mac "frames/sec rcvd" 627.8525
scalar FinalTask.DISPRouter.eth[1].mac "bits/sec sent" 7615317.396
scalar FinalTask.DISPRouter.eth[1].mac "bits/sec rcvd" 600249.336
scalar FinalTask.DISPRouter.eth[1].mac "rx channel idle (%)" 100
scalar FinalTask.DISPRouter.eth[1].mac "rx channel utilization (%)" 0
scalar FinalTask.DISPRouter.eth[1].mac rxPausePkUnits:count 0
attr interpolationmode none
attr title "pause units received, count"
scalar FinalTask.DISPRouter.eth[1].mac rxPausePkUnits:sum 0
attr interpolationmode none
attr title "pause units received, sum"
scalar FinalTask.DISPRouter.eth[1].mac txPausePkUnits:count 0
attr interpolationmode none
attr title "pause units sent, count"
scalar FinalTask.DISPRouter.eth[1].mac txPausePkUnits:sum 0
attr interpolationmode none
attr title "pause units sent, sum"
scalar FinalTask.DISPRouter.eth[1].mac rxPkOk:count 1255705
attr interpolationmode none
attr source rxPkOk
attr title "packets received OK, count"
scalar FinalTask.DISPRouter.eth[1].mac rxPkOk:sum(packetBytes) 150062334
attr interpolationmode none
attr source rxPkOk
attr title "packets received OK, sum(packetBytes)"
scalar FinalTask.DISPRouter.eth[1].mac txPk:count 1256281
attr interpolationmode none
attr source packetSentToLower
attr title "packets transmitted, count"
scalar FinalTask.DISPRouter.eth[1].mac txPk:sum(packetBytes) 1903829349
attr interpolationmode none
attr source packetSentToLower
attr title "packets transmitted, sum(packetBytes)"
scalar FinalTask.DISPRouter.eth[1].mac packetReceivedFromUpper:count 1256281
attr interpolationmode none
attr source packetReceivedFromUpper
attr title "packet bytes from higher layer, count"
scalar FinalTask.DISPRouter.eth[1].mac packetReceivedFromUpper:sum(packetBytes) 1903828870
attr interpolationmode none
attr source packetReceivedFromUpper
attr title "packet bytes from higher layer, sum(packetBytes)"
scalar FinalTask.DISPRouter.eth[1].mac passedUpPk:count 1255705
attr interpolationmode none
attr source packetSentToUpper
attr title "packets passed to higher layer, count"
scalar FinalTask.DISPRouter.eth[1].mac passedUpPk:sum(packetBytes) 150062334
attr interpolationmode none
attr source packetSentToUpper
attr title "packets passed to higher layer, sum(packetBytes)"
scalar FinalTask.DISPRouter.eth[1].mac packetDropIncorrectlyReceived:count 0
attr interpolationmode none
attr source packetDropReasonIsIncorrectlyReceived(packetDropped)
attr title "packet drop: incorrectly received, count"
scalar FinalTask.DISPRouter.eth[1].mac packetDropIncorrectlyReceived:sum(packetBytes) 0
attr interpolationmode none
attr source packetDropReasonIsIncorrectlyReceived(packetDropped)
attr title "packet drop: incorrectly received, sum(packetBytes)"
scalar FinalTask.DISPRouter.eth[1].mac packetDropInterfaceDown:count 0
attr interpolationmode none
attr source packetDropReasonIsInterfaceDown(packetDropped)
attr title "packet drop: interface down, count"
scalar FinalTask.DISPRouter.eth[1].mac packetDropInterfaceDown:sum(packetBytes) 0
attr interpolationmode none
attr source packetDropReasonIsInterfaceDown(packetDropped)
attr title "packet drop: interface down, sum(packetBytes)"
scalar FinalTask.DISPRouter.eth[1].mac packetDropNotAddressedToUs:count 0
attr interpolationmode none
attr source packetDropReasonIsNotAddressedToUs(packetDropped)
attr title "packet drop: not addressed to us, count"
scalar FinalTask.DISPRouter.eth[1].mac packetDropNotAddressedToUs:sum(packetBytes) 0
attr interpolationmode none
attr source packetDropReasonIsNotAddressedToUs(packetDropped)
attr title "packet drop: not addressed to us, sum(packetBytes)"
scalar FinalTask.DISPRouter.eth[1].encap pauseSent:count 0
attr title "pause sent, count"
scalar FinalTask.DISPRouter.eth[1].encap pauseSent:sum 0
attr title "pause sent, sum"
scalar FinalTask.DISPRouter.eth[1].encap decapPk:count 1255705
attr interpolationmode none
attr source decapPk
attr title "packets decapsulated, count"
scalar FinalTask.DISPRouter.eth[1].encap decapPk:sum(packetBytes) 127459644
attr interpolationmode none
attr source decapPk
attr title "packets decapsulated, sum(packetBytes)"
scalar FinalTask.DISPRouter.eth[1].encap encapPk:count 1256281
attr interpolationmode none
attr source encapPk
attr title "packets encapsulated, count"
scalar FinalTask.DISPRouter.eth[1].encap encapPk:sum(packetBytes) 1881215812
attr interpolationmode none
attr source encapPk
attr title "packets encapsulated, sum(packetBytes)"
scalar FinalTask.DISPRouter.ipv4.ip packetDropAddressResolutionFailed:count 0
attr interpolationmode none
attr source packetDropReasonIsAddressResolutionFailed(packetDropped)
attr title "packet drop: address resolution failed, count"
scalar FinalTask.DISPRouter.ipv4.ip packetDropAddressResolutionFailed:sum(packetBytes) 0
attr interpolationmode none
attr source packetDropReasonIsAddressResolutionFailed(packetDropped)
attr title "packet drop: address resolution failed, sum(packetBytes)"
scalar FinalTask.DISPRouter.ipv4.ip packetDropHopLimitReached:count 0
attr interpolationmode none
attr source packetDropReasonIsHopLimitReached(packetDropped)
attr title "packet drop: hop limit reached, count"
scalar FinalTask.DISPRouter.ipv4.ip packetDropHopLimitReached:sum(packetBytes) 0
attr interpolationmode none
attr source packetDropReasonIsHopLimitReached(packetDropped)
attr title "packet drop: hop limit reached, sum(packetBytes)"
scalar FinalTask.DISPRouter.ipv4.ip packetDropForwardingDisabled:count 0
attr interpolationmode none
attr source packetDropReasonIsForwardingDisabled(packetDropped)
attr title "packet drop: forwarding disabled, count"
scalar FinalTask.DISPRouter.ipv4.ip packetDropForwardingDisabled:sum(packetBytes) 0
attr interpolationmode none
attr source packetDropReasonIsForwardingDisabled(packetDropped)
attr title "packet drop: forwarding disabled, sum(packetBytes)"
scalar FinalTask.DISPRouter.ipv4.ip packetDropNoInterfaceFound:count 0
attr interpolationmode none
attr source packetDropReasonIsNoInterfaceFound(packetDropped)
attr title "packet drop: no interface found, count"
scalar FinalTask.DISPRouter.ipv4.ip packetDropNoInterfaceFound:sum(packetBytes) 0
attr interpolationmode none
attr source packetDropReasonIsNoInterfaceFound(packetDropped)
attr title "packet drop: no interface found, sum(packetBytes)"
scalar FinalTask.DISPRouter.ipv4.ip packetDropNoRouteFound:count 0
attr interpolationmode none
attr source packetDropReasonIsNoRouteFound(packetDropped)
attr title "packet drop: no route found, count"
scalar FinalTask.DISPRouter.ipv4.ip packetDropNoRouteFound:sum(packetBytes) 0
attr interpolationmode none
attr source packetDropReasonIsNoRouteFound(packetDropped)
attr title "packet drop: no route found, sum(packetBytes)"
scalar FinalTask.DISPRouter.ipv4.ip packetDropUndefined:count 0
attr interpolationmode none
attr source packetDropReasonIsUndefined(packetDropped)
attr title "packet drop: undefined, count"
scalar FinalTask.DISPRouter.ipv4.ip packetDropUndefined:sum(packetBytes) 0
attr interpolationmode none
attr source packetDropReasonIsUndefined(packetDropped)
attr title "packet drop: undefined, sum(packetBytes)"
scalar FinalTask.DISPRouter.ipv4.arp arpResolutionFailed:count 0
attr title "ARP failed resolutions, count"
scalar FinalTask.DISPRouter.ipv4.arp arpResolutionCompleted:count 46
attr title "ARP completed resolutions, count"
scalar FinalTask.DISPRouter.ipv4.arp arpResolutionInitiated:count 23
attr title "ARP initiated resolutions, count"
scalar FinalTask.DISPRouter.ipv4.arp arpReplySent:count 23
attr source arpReplySent
attr title "ARP replies sent, count"
scalar FinalTask.DISPRouter.ipv4.arp arpReplySent:sum(packetBytes) 644
attr source arpReplySent
attr title "ARP replies sent, sum(packetBytes)"
scalar FinalTask.DISPRouter.ipv4.arp arpRequestSent:count 23
attr source arpRequestSent
attr title "ARP request sent, count"
scalar FinalTask.DISPRouter.ipv4.arp arpRequestSent:sum(packetBytes) 644
attr source arpRequestSent
attr title "ARP request sent, sum(packetBytes)"
scalar FinalTask.HTTPServer.lo[0].lo rcvdPkFromHl:count 0
attr interpolationmode none
attr source packetReceivedFromUpper
attr title "packets received from higher layer, count"
scalar FinalTask.HTTPServer.lo[0].lo rcvdPkFromHl:sum(packetBytes) 0
attr interpolationmode none
attr source packetReceivedFromUpper
attr title "packets received from higher layer, sum(packetBytes)"
scalar FinalTask.HTTPServer.lo[0].lo passedUpPk:count 0
attr interpolationmode none
attr source packetSentToUpper
attr title "packets passed to higher layer, count"
scalar FinalTask.HTTPServer.lo[0].lo passedUpPk:sum(packetBytes) 0
attr interpolationmode none
attr source packetSentToUpper
attr title "packets passed to higher layer, sum(packetBytes)"
scalar FinalTask.HTTPServer.eth[0].mac.queue packetPopped:count 322594
attr interpolationmode none
attr title "packet popped, count"
scalar FinalTask.HTTPServer.eth[0].mac.queue packetPopped:sum(packetBytes) 485304867
attr interpolationmode none
attr title "packet popped, sum(packetBytes)"
statistic FinalTask.HTTPServer.eth[0].mac.queue queueingTime:histogram
field count 322594
field mean 0.0001178862190061
field stddev 0.00080693777999292
field min 0
field max 0.02436192
field sum 38.029386934053
field sqrsum 0.21453911475631
attr interpolationmode none
attr source queueingTime(packetPopped)
attr title "queueing times, histogram"
attr unit s
bin	-inf	0
bin	0	319838
bin	0.000512	189
bin	0.001024	133
bin	0.001536	120
bin	0.002048	121
bin	0.00256	122
bin	0.003072	136
bin	0.003584	112
bin	0.004096	105
bin	0.004608	108
bin	0.00512	101
bin	0.005632	98
bin	0.006144	111
bin	0.006656	88
bin	0.007168	88
bin	0.00768	85
bin	0.008192	82
bin	0.008704	77
bin	0.009216	88
bin	0.009728	68
bin	0.01024	71
bin	0.010752	72
bin	0.011264	64
bin	0.011776	60
bin	0.012288	70
bin	0.0128	47
bin	0.013312	38
bin	0.013824	37
bin	0.014336	43
bin	0.014848	29
bin	0.01536	29
bin	0.015872	35
bin	0.016384	18
bin	0.016896	10
bin	0.017408	8
bin	0.01792	8
bin	0.018432	8
bin	0.018944	10
bin	0.019456	8
bin	0.019968	8
bin	0.02048	8
bin	0.020992	8
bin	0.021504	8
bin	0.022016	10
bin	0.022528	6
bin	0.02304	4
bin	0.023552	4
bin	0.024064	3
bin	0.024576	0
scalar FinalTask.HTTPServer.eth[0].mac.queue queueLength:max 198
attr interpolationmode sample-hold
attr source "count(packetPushed) - count(packetPopped) - count(packetRemoved) - count(packetDropped)"
attr title "queue length, max"
scalar FinalTask.HTTPServer.eth[0].mac.queue queueLength:timeavg 0.019023330730864
attr interpolationmode sample-hold
attr source "count(packetPushed) - count(packetPopped) - count(packetRemoved) - count(packetDropped)"
attr title "queue length, timeavg"
scalar FinalTask.HTTPServer.eth[0].mac.queue packetPushed:count 322594
attr interpolationmode none
attr title "packet pushed, count"
scalar FinalTask.HTTPServer.eth[0].mac.queue packetPushed:sum(packetBytes) 485304867
attr interpolationmode none
attr title "packet pushed, sum(packetBytes)"
scalar FinalTask.HTTPServer.eth[0].mac.queue packetDropQueueOverflow:count 0
attr interpolationmode none
[...]
attr title "packet drops: queue overflow, count"
scalar FinalTask.Client[3].wlan[0].mac.dcf packetDropQueueOverflow:sum(packetBytes) 0
attr interpolationmode none
attr source packetDropReasonIsQueueOverflow(packetDropped)
attr title "packet drops: queue overflow, sum(packetBytes)"
scalar FinalTask.Client[3].wlan[0].mac.dcf packetDropRetryLimitReached:count 0
attr interpolationmode none
attr source packetDropReasonIsRetryLimitReached(packetDropped)
attr title "packet drops: retry limit reached, count"
scalar FinalTask.Client[3].wlan[0].mac.dcf packetDropRetryLimitReached:sum(packetBytes) 0
attr interpolationmode none
attr source packetDropReasonIsRetryLimitReached(packetDropped)
attr title "packet drops: retry limit reached, sum(packetBytes)"
scalar FinalTask.Client[3].wlan[0].mac.dcf linkBroken:count 0
attr interpolationmode none
attr title "link breaks, count"
scalar FinalTask.Client[3].wlan[0].mac packetReceivedFromLower:count 8896077
attr interpolationmode none
attr title "packets received from lower layer, count"
scalar FinalTask.Client[3].wlan[0].mac packetReceivedFromLower:sum(packetBytes) 2648208619
attr interpolationmode none
attr title "packets received from lower layer, sum(packetBytes)"
scalar FinalTask.Client[3].wlan[0].mac packetSentToLower:count 211881
attr interpolationmode none
attr title "packets sent to lower layer, count"
scalar FinalTask.Client[3].wlan[0].mac packetSentToLower:sum(packetBytes) 7437372
attr interpolationmode none
attr title "packets sent to lower layer, sum(packetBytes)"
scalar FinalTask.Client[3].wlan[0].mac packetReceivedFromUpper:count 70667
attr interpolationmode none
attr title "packets received from upper layer, count"
scalar FinalTask.Client[3].wlan[0].mac packetReceivedFromUpper:sum(packetBytes) 3432696
attr interpolationmode none
attr title "packets received from upper layer, sum(packetBytes)"
scalar FinalTask.Client[3].wlan[0].mac packetSentToUpper:count 70705
attr interpolationmode none
attr title "packets sent to upper layer, count"
scalar FinalTask.Client[3].wlan[0].mac packetSentToUpper:sum(packetBytes) 105480478
attr interpolationmode none
attr title "packets sent to upper layer, sum(packetBytes)"
scalar FinalTask.Client[3].wlan[0].mac packetDrop:count 8664923
attr interpolationmode none
attr source packetDropped
attr title "packet drops, count"
scalar FinalTask.Client[3].wlan[0].mac packetDrop:sum(packetBytes) 2536846275
attr interpolationmode none
attr source packetDropped
attr title "packet drops, sum(packetBytes)"
scalar FinalTask.Client[3].wlan[0].mac packetDropIncorrectlyReceived:count 4739
attr interpolationmode none
attr source packetDropReasonIsIncorrectlyReceived(packetDropped)
attr title "packet drops: incorrectly received, count"
scalar FinalTask.Client[3].wlan[0].mac packetDropIncorrectlyReceived:sum(packetBytes) 3254654
attr interpolationmode none
attr source packetDropReasonIsIncorrectlyReceived(packetDropped)
attr title "packet drops: incorrectly received, sum(packetBytes)"
scalar FinalTask.Client[3].wlan[0].mac packetDropNotAddressedToUs:count 8660182
attr interpolationmode none
attr source packetDropReasonIsNotAddressedToUs(packetDropped)
attr title "packet drops: not addressed to us, count"
scalar FinalTask.Client[3].wlan[0].mac packetDropNotAddressedToUs:sum(packetBytes) 2533591531
attr interpolationmode none
attr source packetDropReasonIsNotAddressedToUs(packetDropped)
attr title "packet drops: not addressed to us, sum(packetBytes)"
scalar FinalTask.Client[3].wlan[0].mac packetDropQueueOverflow:count 0
attr interpolationmode none
attr source packetDropReasonIsQueueOverflow(packetDropped)
attr title "packet drops: queue overflow, count"
scalar FinalTask.Client[3].wlan[0].mac packetDropQueueOverflow:sum(packetBytes) 0
attr interpolationmode none
attr source packetDropReasonIsQueueOverflow(packetDropped)
attr title "packet drops: queue overflow, sum(packetBytes)"
scalar FinalTask.Client[3].wlan[0].mac packetDropRetryLimitReached:count 0
attr interpolationmode none
attr source packetDropReasonIsRetryLimitReached(packetDropped)
attr title "packet drops: retry limit reached, count"
scalar FinalTask.Client[3].wlan[0].mac packetDropRetryLimitReached:sum(packetBytes) 0
attr interpolationmode none
attr source packetDropReasonIsRetryLimitReached(packetDropped)
attr title "packet drops: retry limit reached, sum(packetBytes)"
scalar FinalTask.Client[3].wlan[0].mac packetDropDuplicateDetected:count 0
attr interpolationmode none
attr source packetDropReasonIsDuplicateDetected(packetDropped)
attr title "packet drops: duplicate detected, count"
scalar FinalTask.Client[3].wlan[0].mac packetDropDuplicateDetected:sum(packetBytes) 0
attr interpolationmode none
attr source packetDropReasonIsDuplicateDetected(packetDropped)
attr title "packet drops: duplicate detected, sum(packetBytes)"
scalar FinalTask.Client[3].wlan[0].mac packetDropOther:count 2
attr interpolationmode none
attr source packetDropReasonIsOther(packetDropped)
attr title "packet drops: other, count"
scalar FinalTask.Client[3].wlan[0].mac packetDropOther:sum(packetBytes) 90
attr interpolationmode none
attr source packetDropReasonIsOther(packetDropped)
attr title "packet drops: other, sum(packetBytes)"
scalar FinalTask.Client[3].wlan[0].mac linkBroken:count 0
attr interpolationmode none
attr title "link breaks, count"
statistic FinalTask.Client[3].wlan[0].radio radioChannel:histogram
field count 4
field mean 0
field stddev 0
field min 0
field max 0
field sum 0
field sqrsum 0
attr interpolationmode sample-hold
attr source radioChannelChanged
attr title "Radio channel, histogram"
bin	-inf	0
bin	-0.5	0
bin	-0.48	0
bin	-0.46	0
bin	-0.44	0
bin	-0.42	0
bin	-0.4	0
bin	-0.38	0
bin	-0.36	0
bin	-0.34	0
bin	-0.32	0
bin	-0.3	0
bin	-0.28	0
bin	-0.26	0
bin	-0.24	0
bin	-0.22	0
bin	-0.2	0
bin	-0.18	0
bin	-0.16	0
bin	-0.14	0
bin	-0.12	0
bin	-0.1	0
bin	-0.08	0
bin	-0.06	0
bin	-0.04	0
bin	-0.02	0
bin	0	4
bin	0.02	0
bin	0.04	0
bin	0.06	0
bin	0.08	0
bin	0.1	0
bin	0.12	0
bin	0.14	0
bin	0.16	0
bin	0.18	0
bin	0.2	0
bin	0.22	0
bin	0.24	0
bin	0.26	0
bin	0.28	0
bin	0.3	0
bin	0.32	0
bin	0.34	0
bin	0.36	0
bin	0.38	0
bin	0.4	0
bin	0.42	0
bin	0.44	0
bin	0.46	0
bin	0.48	0
bin	0.5	0
scalar FinalTask.Client[3].wlan[0].radio radioMode:count 423765
attr interpolationmode sample-hold
attr source radioModeChanged
attr title "Radio mode, count"
scalar FinalTask.Client[3].wlan[0].radio receptionState:count 18220944
attr interpolationmode sample-hold
attr source receptionStateChanged
attr title "Radio reception state, count"
scalar FinalTask.Client[3].wlan[0].radio transmissionState:count 847524
attr interpolationmode sample-hold
attr source transmissionStateChanged
attr title "Radio transmission state, count"
statistic FinalTask.Client[3].wlan[0].radio minSnir:histogram
field count 8896077
field mean 59960.418501964
field stddev 211132.67593066
field min 0.018060542724981
field max 1398893.8472273
field sum 533412499945.7
field sqrsum 4.2854407748227e+17
attr source minimumSnir(packetSentToUpper)
attr title "Min SNIR, histogram"
bin	-inf	0
bin	0	3815965
bin	20000	4561092
bin	40000	0
bin	60000	0
bin	80000	0
bin	100000	0
bin	120000	211295
bin	140000	0
bin	160000	0
bin	180000	0
bin	200000	0
bin	220000	0
bin	240000	0
bin	260000	0
bin	280000	0
bin	300000	0
bin	320000	0
bin	340000	99684
bin	360000	0
bin	380000	0
bin	400000	0
bin	420000	0
bin	440000	0
bin	460000	0
bin	480000	0
bin	500000	0
bin	520000	0
bin	540000	0
bin	560000	0
bin	580000	0
bin	600000	0
bin	620000	0
bin	640000	0
bin	660000	0
bin	680000	0
bin	700000	0
bin	720000	0
bin	740000	0
bin	760000	0
bin	780000	0
bin	800000	0
bin	820000	0
bin	840000	0
bin	860000	0
bin	880000	0
bin	900000	0
bin	920000	0
bin	940000	0
bin	960000	0
bin	980000	0
bin	1000000	0
bin	1020000	0
bin	1040000	0
bin	1060000	0
bin	1080000	0
bin	1100000	0
bin	1120000	0
bin	1140000	0
bin	1160000	0
bin	1180000	0
bin	1200000	0
bin	1220000	0
bin	1240000	0
bin	1260000	0
bin	1280000	0
bin	1300000	0
bin	1320000	0
bin	1340000	0
bin	1360000	0
bin	1380000	208041
bin	1400000	0
bin	1420000	0
bin	1440000	0
bin	1460000	0
bin	1480000	0
bin	1500000	0
bin	1520000	0
bin	1540000	0
bin	1560000	0
bin	1580000	0
bin	1600000	0
bin	1620000	0
bin	1640000	0
bin	1660000	0
bin	1680000	0
bin	1700000	0
bin	1720000	0
bin	1740000	0
bin	1760000	0
statistic FinalTask.Client[3].wlan[0].radio packetErrorRate:histogram
field count 8896077
field mean 0.0005321837682973
field stddev 0.023043175161758
field min 0
field max 1
field sum 4734.3477809229
field sqrsum 4726.2284481041
attr source packetErrorRate(packetSentToUpper)
attr title "Packet error rate, histogram"
bin	-inf	0
bin	-0.5	0
bin	-0.48	0
bin	-0.46	0
bin	-0.44	0
bin	-0.42	0
bin	-0.4	0
bin	-0.38	0
bin	-0.36	0
bin	-0.34	0
bin	-0.32	0
bin	-0.3	0
bin	-0.28	0
bin	-0.26	0
bin	-0.24	0
bin	-0.22	0
bin	-0.2	0
bin	-0.18	0
bin	-0.16	0
bin	-0.14	0
bin	-0.12	0
bin	-0.1	0
bin	-0.08	0
bin	-0.06	0
bin	-0.04	0
bin	-0.02	0
bin	0	8891028
bin	0.02	321
bin	0.04	0
bin	0.06	0
bin	0.08	0
bin	0.1	2
bin	0.12	0
bin	0.14	0
bin	0.16	0
bin	0.18	0
bin	0.2	0
bin	0.22	0
bin	0.24	0
bin	0.26	0
bin	0.28	0
bin	0.3	0
bin	0.32	0
bin	0.34	0
bin	0.36	0
bin	0.38	0
bin	0.4	0
bin	0.42	0
bin	0.44	0
bin	0.46	0
bin	0.48	0
bin	0.5	0
bin	0.52	0
bin	0.54	0
bin	0.56	0
bin	0.58	0
bin	0.6	0
bin	0.62	0
bin	0.64	0
bin	0.66	0
bin	0.68	0
bin	0.7	0
bin	0.72	0
bin	0.74	0
bin	0.76	0
bin	0.78	0
bin	0.8	0
bin	0.82	0
bin	0.84	0
bin	0.86	0
bin	0.88	0
bin	0.9	0
bin	0.92	0
bin	0.94	0
bin	0.96	0
bin	0.98	3
bin	1	4723
bin	1.02	0
statistic FinalTask.Client[3].wlan[0].radio bitErrorRate:histogram
field count 0
field mean -nan
field stddev -nan
field min -nan
field max -nan
field sum 0
field sqrsum 0
attr source bitErrorRate(packetSentToUpper)
attr title "Bit error rate, histogram"
bin	-inf	0
bin	0	0
bin	1	0
statistic FinalTask.Client[3].wlan[0].radio symbolErrorRate:histogram
field count 0
field mean -nan
field stddev -nan
field min -nan
field max -nan
field sum 0
field sqrsum 0
attr source symbolErrorRate(packetSentToUpper)
attr title "Symbol error rate, histogram"
bin	-inf	0
bin	0	0
bin	1	0
scalar FinalTask.Client[3].ipv4.ip packetDropAddressResolutionFailed:count 0
attr interpolationmode none
attr source packetDropReasonIsAddressResolutionFailed(packetDropped)
attr title "packet drop: address resolution failed, count"
scalar FinalTask.Client[3].ipv4.ip packetDropAddressResolutionFailed:sum(packetBytes) 0
attr interpolationmode none
attr source packetDropReasonIsAddressResolutionFailed(packetDropped)
attr title "packet drop: address resolution failed, sum(packetBytes)"
scalar FinalTask.Client[3].ipv4.ip packetDropHopLimitReached:count 0
attr interpolationmode none
attr source packetDropReasonIsHopLimitReached(packetDropped)
attr title "packet drop: hop limit reached, count"
scalar FinalTask.Client[3].ipv4.ip packetDropHopLimitReached:sum(packetBytes) 0
attr interpolationmode none
attr source packetDropReasonIsHopLimitReached(packetDropped)
attr title "packet drop: hop limit reached, sum(packetBytes)"
scalar FinalTask.Client[3].ipv4.ip packetDropForwardingDisabled:count 0
attr interpolationmode none
attr source packetDropReasonIsForwardingDisabled(packetDropped)
attr title "packet drop: forwarding disabled, count"
scalar FinalTask.Client[3].ipv4.ip packetDropForwardingDisabled:sum(packetBytes) 0
attr interpolationmode none
attr source packetDropReasonIsForwardingDisabled(packetDropped)
attr title "packet drop: forwarding disabled, sum(packetBytes)"
scalar FinalTask.Client[3].ipv4.ip packetDropNoInterfaceFound:count 0
attr interpolationmode none
attr source packetDropReasonIsNoInterfaceFound(packetDropped)
attr title "packet drop: no interface found, count"
scalar FinalTask.Client[3].ipv4.ip packetDropNoInterfaceFound:sum(packetBytes) 0
attr interpolationmode none
attr source packetDropReasonIsNoInterfaceFound(packetDropped)
attr title "packet drop: no interface found, sum(packetBytes)"
scalar FinalTask.Client[3].ipv4.ip packetDropNoRouteFound:count 0
attr interpolationmode none
attr source packetDropReasonIsNoRouteFound(packetDropped)
attr title "packet drop: no route found, count"
scalar FinalTask.Client[3].ipv4.ip packetDropNoRouteFound:sum(packetBytes) 0
attr interpolationmode none
attr source packetDropReasonIsNoRouteFound(packetDropped)
attr title "packet drop: no route found, sum(packetBytes)"
scalar FinalTask.Client[3].ipv4.ip packetDropUndefined:count 0
attr interpolationmode none
attr source packetDropReasonIsUndefined(packetDropped)
attr title "packet drop: undefined, count"
scalar FinalTask.Client[3].ipv4.ip packetDropUndefined:sum(packetBytes) 0
attr interpolationmode none
attr source packetDropReasonIsUndefined(packetDropped)
attr title "packet drop: undefined, sum(packetBytes)"
scalar FinalTask.Client[3].ipv4.arp arpResolutionFailed:count 0
attr title "ARP failed resolutions, count"
scalar FinalTask.Client[3].ipv4.arp arpResolutionCompleted:count 97
attr title "ARP completed resolutions, count"
scalar FinalTask.Client[3].ipv4.arp arpResolutionInitiated:count 1
attr title "ARP initiated resolutions, count"
scalar FinalTask.Client[3].ipv4.arp arpReplySent:count 16
attr source arpReplySent
attr title "ARP replies sent, count"
scalar FinalTask.Client[3].ipv4.arp arpReplySent:sum(packetBytes) 448
attr source arpReplySent
attr title "ARP replies sent, sum(packetBytes)"
scalar FinalTask.Client[3].ipv4.arp arpRequestSent:count 2
attr source arpRequestSent
attr title "ARP request sent, count"
scalar FinalTask.Client[3].ipv4.arp arpRequestSent:sum(packetBytes) 56
attr source arpRequestSent
attr title "ARP request sent, sum(packetBytes)"
scalar FinalTask.Client[3].udp packetReceived:count 0
attr interpolationmode none
attr source packetReceived
attr title "packets received, count"
scalar FinalTask.Client[3].udp packetReceived:sum(packetBytes) 0
attr interpolationmode none
attr source packetReceived
attr title "packets received, sum(packetBytes)"
scalar FinalTask.Client[3].udp packetSent:count 0
attr interpolationmode none
attr source packetSent
attr title "packets sent, count"
scalar FinalTask.Client[3].udp packetSent:sum(packetBytes) 0
attr interpolationmode none
attr source packetSent
attr title "packets sent, sum(packetBytes)"
scalar FinalTask.Client[3].udp passedUpPk:count 0
attr interpolationmode none
attr source packetSentToUpper
attr title "packets passed up, count"
scalar FinalTask.Client[3].udp droppedPkWrongPort:count 0
attr interpolationmode none
attr source packetDropReasonIsNoPortFound(packetDropped)
attr title "packets dropped (wrong port), count"
scalar FinalTask.Client[3].udp droppedPkBadChecksum:count 0
attr interpolationmode none
attr source packetDropReasonIsIncorrectlyReceived(packetDropped)
attr title "packets dropped (checksum error), count"
scalar FinalTask.Client[3].app[0] packetReceived:count 54534
attr interpolationmode none
attr source packetReceived
attr title "packets received, count"
scalar FinalTask.Client[3].app[0] packetReceived:sum(packetBytes) 100698336
attr interpolationmode none
attr source packetReceived
attr title "packets received, sum(packetBytes)"
statistic FinalTask.Client[3].app[0] endToEndDelay:histogram
field count 137899
field mean 3.1671082116012
field stddev 3.3014282057831
field min 0.060714275673
field max 17.111169552186
field sum 436741.0552716
field sqrsum 2886215.5321336
attr interpolationmode none
attr source dataAge(packetReceived)
attr title "end-to-end delay, histogram"
attr unit s
bin	-inf	0
bin	0	838
bin	0.2	1204
bin	0.4	6348
bin	0.6	10276
bin	0.8	28831
bin	1	24740
bin	1.2	3258
bin	1.4	2470
bin	1.6	1490
bin	1.8	1406
bin	2	1463
bin	2.2	1069
bin	2.4	1416
bin	2.6	1306
bin	2.8	1300
bin	3	1531
bin	3.2	2006
bin	3.4	1325
bin	3.6	1520
bin	3.8	1770
bin	4	1609
bin	4.2	1583
bin	4.4	1749
bin	4.6	1966
bin	4.8	1804
bin	5	1480
bin	5.2	1722
bin	5.4	1526
bin	5.6	1694
bin	5.8	1663
bin	6	1186
bin	6.2	1206
bin	6.4	1070
bin	6.6	1321
bin	6.8	1136
bin	7	961
bin	7.2	819
bin	7.4	740
bin	7.6	1035
bin	7.8	995
bin	8	764
bin	8.2	814
bin	8.4	904
bin	8.6	706
bin	8.8	655
bin	9	585
bin	9.2	781
bin	9.4	682
bin	9.6	1037
bin	9.8	638
bin	10	914
bin	10.2	557
bin	10.4	441
bin	10.6	391
bin	10.8	367
bin	11	433
bin	11.2	273
bin	11.4	357
bin	11.6	357
bin	11.8	261
bin	12	223
bin	12.2	295
bin	12.4	262
bin	12.6	177
bin	12.8	214
bin	13	134
bin	13.2	200
bin	13.4	123
bin	13.6	230
bin	13.8	88
bin	14	170
bin	14.2	35
bin	14.4	56
bin	14.6	211
bin	14.8	66
bin	15	27
bin	15.2	84
bin	15.4	54
bin	15.6	84
bin	15.8	4
bin	16	156
bin	16.2	124
bin	16.4	4
bin	16.6	24
bin	16.8	70
bin	17	35
bin	17.2	0
statistic FinalTask.Client[3].app[0] endToEndDelay:weightedHistogram
field count 137899
field mean 3.1685919734557
field stddev 3.3019218602255
field min 0.060714275673
field max 17.111169552186
field weights 805586688
field weightedSum 2552575513.5196
field sqrSumWeights 8983450866816
field weightedSqrSum 16871008996.001
attr interpolationmode none
attr source dataAge(packetReceived)
attr title "end-to-end delay, weightedHistogram"
attr unit s
bin	-inf	0
bin	0	4893920
bin	0.2	7031360
bin	0.4	37072320
bin	0.6	60011840
bin	0.8	168373040
bin	1	144479672
bin	1.2	19025976
bin	1.4	14424800
bin	1.6	8701600
bin	1.8	8211040
bin	2	8543120
bin	2.2	6240200
bin	2.4	8269440
bin	2.6	7627040
bin	2.8	7592000
bin	3	8936568
bin	3.2	11716272
bin	3.4	7740504
bin	3.6	8876800
bin	3.8	10335768
bin	4	9401056
bin	4.2	9249472
bin	4.4	10215336
bin	4.6	11480968
bin	4.8	10546512
bin	5	8660144
bin	5.2	10059168
bin	5.4	8966328
bin	5.6	9893936
bin	5.8	9714528
bin	6	6924624
bin	6.2	7043040
bin	6.4	6248800
bin	6.6	7712824
bin	6.8	6613000
bin	7	5635016
bin	7.2	4783912
bin	7.4	4321600
bin	7.6	6041272
bin	7.8	5805048
bin	8	4460504
bin	8.2	4757800
bin	8.4	5273584
bin	8.6	4126632
bin	8.8	3827320
bin	9	3415176
bin	9.2	4552248
bin	9.4	3983040
bin	9.6	6251200
bin	9.8	3725912
bin	10	5351096
bin	10.2	3266080
bin	10.4	2579720
bin	10.6	2283976
bin	10.8	2141976
bin	11	2528456
bin	11.2	1596928
bin	11.4	2084440
bin	11.6	2075952
bin	11.8	1530536
bin	12	1306144
bin	12.2	1712928
bin	12.4	1524280
bin	12.6	1031840
bin	12.8	1240496
bin	13	784480
bin	13.2	1161288
bin	13.4	713128
bin	13.6	1339496
bin	13.8	518632
bin	14	990688
bin	14.2	209136
bin	14.4	318512
bin	14.6	1232920
bin	14.8	385440
bin	15	159272
bin	15.2	490560
bin	15.4	315360
bin	15.6	491592
bin	15.8	23360
bin	16	905400
bin	16.2	724160
bin	16.4	23360
bin	16.6	140160
bin	16.8	408800
bin	17	202816
bin	17.2	0
scalar FinalTask.Client[3].app[0] packetSent:count 155
attr interpolationmode none
attr source packetSent
attr title "packets sent, count"
scalar FinalTask.Client[3].app[0] packetSent:sum(packetBytes) 39370
attr interpolationmode none
attr source packetSent
attr title "packets sent, sum(packetBytes)"
scalar FinalTask.Client[3].app[0] numActiveSessions:max 1
attr interpolationmode sample-hold
attr source sum(connect)
attr title "number of active sessions, max"
scalar FinalTask.Client[3].app[0] numActiveSessions:timeavg 0.027981309661369
attr interpolationmode sample-hold
attr source sum(connect)
attr title "number of active sessions, timeavg"
scalar FinalTask.Client[3].app[0] numSessions:last 155
attr source sum(connect+1)/2
attr title "total number of sessions, last"
scalar FinalTask.radioMedium.propagation "Arrival computation count" 54682722
scalar FinalTask.radioMedium "transmission count" 9113787
scalar FinalTask.radioMedium "signal send count" 54682722
scalar FinalTask.radioMedium "reception computation count" 54682722
scalar FinalTask.radioMedium "interference computation count" 173095769
scalar FinalTask.radioMedium "reception decision computation count" 54641919
scalar FinalTask.radioMedium "listening decision computation count" 63782804
scalar FinalTask.radioMedium "reception cache hit" 85.711252100865
attr unit %
scalar FinalTask.radioMedium "interference cache hit" 66.666666666667
attr unit %
scalar FinalTask.radioMedium "noise cache hit" 0
attr unit %
scalar FinalTask.radioMedium "snir cache hit" 50
attr unit %
scalar FinalTask.radioMedium "reception decision cache hit" 50
attr unit %
scalar FinalTask.radioMedium "reception result cache hit" 0
attr unit %

